examples/feeders/CERTEL/CER3_2_34/Trafos_CER3_2_34.dss
New Transformer.IT20_2411 phases=1 Windings=3 Xhl=0.5 %loadLoss =0.5 %noloadLoss =0.2
 ~ wdg=1 bus=23880_1.3 conn= Wye kv=7.97 kva=10 tap=0.956
 ~ wdg=2 bus=BT_20_2411.1.0  conn= Wye kv=0.22 kva=10 tap=1
 ~ wdg=3 bus=BT_20_2411.0.2  conn= Wye kv=0.22 kva=10 tap=1

New Transformer.IT20_4805 phases=1 Windings=3 Xhl=0.5 %loadLoss =0.5 %noloadLoss =0.2
 ~ wdg=1 bus=106864_1.1 conn= Wye kv=7.97 kva=5 tap=1
 ~ wdg=2 bus=BT_20_4805.1.0  conn= Wye kv=0.22 kva=5 tap=1
 ~ wdg=3 bus=BT_20_4805.0.2  conn= Wye kv=0.22 kva=5 tap=1

New Transformer.IT32_10126 phases=1 Windings=3 Xhl=0.5 %loadLoss =0.5 %noloadLoss =0.2
 ~ wdg=1 bus=142035_1.1 conn= Wye kv=7.97 kva=25 tap=0.956
 ~ wdg=2 bus=BT_32_10126.1.0  conn= Wye kv=0.22 kva=25 tap=1
 ~ wdg=3 bus=BT_32_10126.0.2  conn= Wye kv=0.22 kva=25 tap=1

New Transformer.IT32_10236 phases=1 Windings=3 Xhl=0.5 %loadLoss =0.5 %noloadLoss =0.2
 ~ wdg=1 bus=16980_1.3 conn= Wye kv=7.97 kva=10 tap=0.956
 ~ wdg=2 bus=BT_32_10236.1.0  conn= Wye kv=0.22 kva=10 tap=1
 ~ wdg=3 bus=BT_32_10236.0.2  conn= Wye kv=0.22 kva=10 tap=1

New Transformer.IT32_10514 phases=3 Windings=2 Xhl=0.5 %loadLoss =1.81 %noloadLoss =0.47
 ~ wdg=1 bus=17619_1 conn= Delta kv=13.8 kva=30 tap=1
 ~ wdg=2 bus=BT_32_10514 conn= Wye kv=0.38 kva=30 tap=1

New Transformer.IT32_1086 phases=1 Windings=3 Xhl=0.5 %loadLoss =0.5 %noloadLoss =0.2
 ~ wdg=1 bus=18796_1.3 conn= Wye kv=7.97 kva=20 tap=1
 ~ wdg=2 bus=BT_32_1086.1.0  conn= Wye kv=0.22 kva=20 tap=1
 ~ wdg=3 bus=BT_32_1086.0.2  conn= Wye kv=0.22 kva=20 tap=1

New Transformer.IT32_1101 phases=1 Windings=3 Xhl=0.5 %loadLoss =0.5 %noloadLoss =0.2
 ~ wdg=1 bus=16983_1.3 conn= Wye kv=7.97 kva=10 tap=0.913
 ~ wdg=2 bus=BT_32_1101.1.0  conn= Wye kv=0.22 kva=10 tap=1
 ~ wdg=3 bus=BT_32_1101.0.2  conn= Wye kv=0.22 kva=10 tap=1

New Transformer.IT32_1124 phases=3 Windings=2 Xhl=0.5 %loadLoss =1.65 %noloadLoss =0.41
 ~ wdg=1 bus=17196_1 conn= Delta kv=13.8 kva=45 tap=0.957
 ~ wdg=2 bus=BT_32_1124 conn= Wye kv=0.38 kva=45 tap=1

New Transformer.IT32_1125 phases=1 Windings=3 Xhl=0.5 %loadLoss =0.5 %noloadLoss =0.2
 ~ wdg=1 bus=17623_1.3 conn= Wye kv=7.97 kva=25 tap=0.956
 ~ wdg=2 bus=BT_32_1125.1.0  conn= Wye kv=0.22 kva=25 tap=1
 ~ wdg=3 bus=BT_32_1125.0.2  conn= Wye kv=0.22 kva=25 tap=1

New Transformer.IT32_1126 phases=1 Windings=3 Xhl=0.5 %loadLoss =0.5 %noloadLoss =0.2
 ~ wdg=1 bus=17205_1.3 conn= Wye kv=7.97 kva=25 tap=0.87
 ~ wdg=2 bus=BT_32_1126.1.0  conn= Wye kv=0.22 kva=25 tap=1
 ~ wdg=3 bus=BT_32_1126.0.2  conn= Wye kv=0.22 kva=25 tap=1

New Transformer.IT32_1127 phases=1 Windings=3 Xhl=0.5 %loadLoss =0.5 %noloadLoss =0.2
 ~ wdg=1 bus=127339_1.1 conn= Wye kv=7.97 kva=10 tap=0.913
 ~ wdg=2 bus=BT_32_1127.1.0  conn= Wye kv=0.22 kva=10 tap=1
 ~ wdg=3 bus=BT_32_1127.0.2  conn= Wye kv=0.22 kva=10 tap=1

New Transformer.IT32_1128 phases=1 Windings=3 Xhl=0.5 %loadLoss =0.5 %noloadLoss =0.2
 ~ wdg=1 bus=39894_1.3 conn= Wye kv=7.97 kva=15 tap=0.913
 ~ wdg=2 bus=BT_32_1128.1.0  conn= Wye kv=0.22 kva=15 tap=1
 ~ wdg=3 bus=BT_32_1128.0.2  conn= Wye kv=0.22 kva=15 tap=1

New Transformer.IT32_1129 phases=1 Windings=3 Xhl=0.5 %loadLoss =0.5 %noloadLoss =0.2
 ~ wdg=1 bus=19040_1.1 conn= Wye kv=7.97 kva=15 tap=0.87
 ~ wdg=2 bus=BT_32_1129.1.0  conn= Wye kv=0.22 kva=15 tap=1
 ~ wdg=3 bus=BT_32_1129.0.2  conn= Wye kv=0.22 kva=15 tap=1

New Transformer.IT32_1130 phases=1 Windings=3 Xhl=0.5 %loadLoss =0.5 %noloadLoss =0.2
 ~ wdg=1 bus=19055_1.2 conn= Wye kv=7.97 kva=15 tap=0.956
 ~ wdg=2 bus=BT_32_1130.1.0  conn= Wye kv=0.22 kva=15 tap=1
 ~ wdg=3 bus=BT_32_1130.0.2  conn= Wye kv=0.22 kva=15 tap=1

New Transformer.IT32_1131 phases=1 Windings=3 Xhl=0.5 %loadLoss =0.5 %noloadLoss =0.2
 ~ wdg=1 bus=114371_1.1 conn= Wye kv=7.97 kva=15 tap=0.913
 ~ wdg=2 bus=BT_32_1131.1.0  conn= Wye kv=0.22 kva=15 tap=1
 ~ wdg=3 bus=BT_32_1131.0.2  conn= Wye kv=0.22 kva=15 tap=1

New Transformer.IT32_1132 phases=1 Windings=3 Xhl=0.5 %loadLoss =0.5 %noloadLoss =0.2
 ~ wdg=1 bus=99585_1.3 conn= Wye kv=7.97 kva=15 tap=0.956
 ~ wdg=2 bus=BT_32_1132.1.0  conn= Wye kv=0.22 kva=15 tap=1
 ~ wdg=3 bus=BT_32_1132.0.2  conn= Wye kv=0.22 kva=15 tap=1

New Transformer.IT32_1137 phases=1 Windings=3 Xhl=0.5 %loadLoss =0.5 %noloadLoss =0.2
 ~ wdg=1 bus=117797_1.3 conn= Wye kv=7.97 kva=10 tap=0.956
 ~ wdg=2 bus=BT_32_1137.1.0  conn= Wye kv=0.22 kva=10 tap=1
 ~ wdg=3 bus=BT_32_1137.0.2  conn= Wye kv=0.22 kva=10 tap=1

New Transformer.IT32_1151 phases=1 Windings=3 Xhl=0.5 %loadLoss =0.5 %noloadLoss =0.2
 ~ wdg=1 bus=19033_1.3 conn= Wye kv=7.97 kva=10 tap=0.913
 ~ wdg=2 bus=BT_32_1151.1.0  conn= Wye kv=0.22 kva=10 tap=1
 ~ wdg=3 bus=BT_32_1151.0.2  conn= Wye kv=0.22 kva=10 tap=1

New Transformer.IT32_1152 phases=1 Windings=3 Xhl=0.5 %loadLoss =0.5 %noloadLoss =0.2
 ~ wdg=1 bus=114379_1.3 conn= Wye kv=7.97 kva=5 tap=0.87
 ~ wdg=2 bus=BT_32_1152.1.0  conn= Wye kv=0.22 kva=5 tap=1
 ~ wdg=3 bus=BT_32_1152.0.2  conn= Wye kv=0.22 kva=5 tap=1

New Transformer.IT32_1156 phases=1 Windings=3 Xhl=0.5 %loadLoss =0.5 %noloadLoss =0.2
 ~ wdg=1 bus=67103_1.2 conn= Wye kv=7.97 kva=25 tap=0.87
 ~ wdg=2 bus=BT_32_1156.1.0  conn= Wye kv=0.22 kva=25 tap=1
 ~ wdg=3 bus=BT_32_1156.0.2  conn= Wye kv=0.22 kva=25 tap=1

New Transformer.IT32_1430 phases=1 Windings=3 Xhl=0.5 %loadLoss =0.5 %noloadLoss =0.2
 ~ wdg=1 bus=24263_1.2 conn= Wye kv=7.97 kva=25 tap=0.87
 ~ wdg=2 bus=BT_32_1430.1.0  conn= Wye kv=0.22 kva=25 tap=1
 ~ wdg=3 bus=BT_32_1430.0.2  conn= Wye kv=0.22 kva=25 tap=1

New Transformer.IT32_1435 phases=3 Windings=2 Xhl=0.5 %loadLoss =1.65 %noloadLoss =0.41
 ~ wdg=1 bus=15605_1 conn= Delta kv=13.8 kva=45 tap=0.913
 ~ wdg=2 bus=BT_32_1435 conn= Wye kv=0.38 kva=45 tap=1

New Transformer.IT32_1478 phases=1 Windings=3 Xhl=0.5 %loadLoss =0.5 %noloadLoss =0.2
 ~ wdg=1 bus=18780_1.3 conn= Wye kv=7.97 kva=10 tap=1
 ~ wdg=2 bus=BT_32_1478.1.0  conn= Wye kv=0.22 kva=10 tap=1
 ~ wdg=3 bus=BT_32_1478.0.2  conn= Wye kv=0.22 kva=10 tap=1

New Transformer.IT32_1663 phases=1 Windings=3 Xhl=0.5 %loadLoss =0.5 %noloadLoss =0.2
 ~ wdg=1 bus=14481_1.3 conn= Wye kv=7.97 kva=25 tap=0.913
 ~ wdg=2 bus=BT_32_1663.1.0  conn= Wye kv=0.22 kva=25 tap=1
 ~ wdg=3 bus=BT_32_1663.0.2  conn= Wye kv=0.22 kva=25 tap=1

New Transformer.IT32_1664 phases=1 Windings=3 Xhl=0.5 %loadLoss =0.5 %noloadLoss =0.2
 ~ wdg=1 bus=14491_1.3 conn= Wye kv=7.97 kva=10 tap=0.913
 ~ wdg=2 bus=BT_32_1664.1.0  conn= Wye kv=0.22 kva=10 tap=1
 ~ wdg=3 bus=BT_32_1664.0.2  conn= Wye kv=0.22 kva=10 tap=1

New Transformer.IT32_1715 phases=1 Windings=3 Xhl=0.5 %loadLoss =0.5 %noloadLoss =0.2
 ~ wdg=1 bus=17000_1.3 conn= Wye kv=7.97 kva=15 tap=0.913
 ~ wdg=2 bus=BT_32_1715.1.0  conn= Wye kv=0.22 kva=15 tap=1
 ~ wdg=3 bus=BT_32_1715.0.2  conn= Wye kv=0.22 kva=15 tap=1

New Transformer.IT32_1716 phases=3 Windings=2 Xhl=0.5 %loadLoss =1.65 %noloadLoss =0.41
 ~ wdg=1 bus=56854_1 conn= Delta kv=13.8 kva=45 tap=0.957
 ~ wdg=2 bus=BT_32_1716 conn= Wye kv=0.38 kva=45 tap=1

New Transformer.IT32_1744 phases=1 Windings=3 Xhl=0.5 %loadLoss =0.5 %noloadLoss =0.2
 ~ wdg=1 bus=17191_1.2 conn= Wye kv=7.97 kva=10 tap=0.956
 ~ wdg=2 bus=BT_32_1744.1.0  conn= Wye kv=0.22 kva=10 tap=1
 ~ wdg=3 bus=BT_32_1744.0.2  conn= Wye kv=0.22 kva=10 tap=1

New Transformer.IT32_1757 phases=1 Windings=3 Xhl=0.5 %loadLoss =0.5 %noloadLoss =0.2
 ~ wdg=1 bus=112670_1.2 conn= Wye kv=7.97 kva=15 tap=0.913
 ~ wdg=2 bus=BT_32_1757.1.0  conn= Wye kv=0.22 kva=15 tap=1
 ~ wdg=3 bus=BT_32_1757.0.2  conn= Wye kv=0.22 kva=15 tap=1

New Transformer.IT32_1760 phases=1 Windings=3 Xhl=0.5 %loadLoss =0.5 %noloadLoss =0.2
 ~ wdg=1 bus=65778_1.2 conn= Wye kv=7.97 kva=10 tap=1
 ~ wdg=2 bus=BT_32_1760.1.0  conn= Wye kv=0.22 kva=10 tap=1
 ~ wdg=3 bus=BT_32_1760.0.2  conn= Wye kv=0.22 kva=10 tap=1

New Transformer.IT32_1887 phases=1 Windings=3 Xhl=0.5 %loadLoss =0.5 %noloadLoss =0.2
 ~ wdg=1 bus=40409_1.3 conn= Wye kv=7.97 kva=15 tap=0.956
 ~ wdg=2 bus=BT_32_1887.1.0  conn= Wye kv=0.22 kva=15 tap=1
 ~ wdg=3 bus=BT_32_1887.0.2  conn= Wye kv=0.22 kva=15 tap=1

New Transformer.IT32_1903 phases=1 Windings=3 Xhl=0.5 %loadLoss =0.5 %noloadLoss =0.2
 ~ wdg=1 bus=19436_1.3 conn= Wye kv=7.97 kva=10 tap=0.913
 ~ wdg=2 bus=BT_32_1903.1.0  conn= Wye kv=0.22 kva=10 tap=1
 ~ wdg=3 bus=BT_32_1903.0.2  conn= Wye kv=0.22 kva=10 tap=1

New Transformer.IT32_1932 phases=1 Windings=3 Xhl=0.5 %loadLoss =0.5 %noloadLoss =0.2
 ~ wdg=1 bus=29051_1.2 conn= Wye kv=7.97 kva=5 tap=1
 ~ wdg=2 bus=BT_32_1932.1.0  conn= Wye kv=0.22 kva=5 tap=1
 ~ wdg=3 bus=BT_32_1932.0.2  conn= Wye kv=0.22 kva=5 tap=1

New Transformer.IT32_2029 phases=1 Windings=3 Xhl=0.5 %loadLoss =0.5 %noloadLoss =0.2
 ~ wdg=1 bus=18749_1.3 conn= Wye kv=7.97 kva=15 tap=0.956
 ~ wdg=2 bus=BT_32_2029.1.0  conn= Wye kv=0.22 kva=15 tap=1
 ~ wdg=3 bus=BT_32_2029.0.2  conn= Wye kv=0.22 kva=15 tap=1

New Transformer.IT32_2113 phases=1 Windings=3 Xhl=0.5 %loadLoss =0.5 %noloadLoss =0.2
 ~ wdg=1 bus=40762_1.3 conn= Wye kv=7.97 kva=25 tap=0.913
 ~ wdg=2 bus=BT_32_2113.1.0  conn= Wye kv=0.22 kva=25 tap=1
 ~ wdg=3 bus=BT_32_2113.0.2  conn= Wye kv=0.22 kva=25 tap=1

New Transformer.IT32_2267 phases=3 Windings=2 Xhl=0.5 %loadLoss =1.65 %noloadLoss =0.41
 ~ wdg=1 bus=127412_1 conn= Delta kv=13.8 kva=45 tap=0.913
 ~ wdg=2 bus=BT_32_2267 conn= Wye kv=0.38 kva=45 tap=1

New Transformer.IT32_2364 phases=1 Windings=3 Xhl=0.5 %loadLoss =0.5 %noloadLoss =0.2
 ~ wdg=1 bus=18761_1.3 conn= Wye kv=7.97 kva=15 tap=0.956
 ~ wdg=2 bus=BT_32_2364.1.0  conn= Wye kv=0.22 kva=15 tap=1
 ~ wdg=3 bus=BT_32_2364.0.2  conn= Wye kv=0.22 kva=15 tap=1

New Transformer.IT32_2781 phases=1 Windings=3 Xhl=0.5 %loadLoss =0.5 %noloadLoss =0.2
 ~ wdg=1 bus=18751_1.3 conn= Wye kv=7.97 kva=5 tap=0.956
 ~ wdg=2 bus=BT_32_2781.1.0  conn= Wye kv=0.22 kva=5 tap=1
 ~ wdg=3 bus=BT_32_2781.0.2  conn= Wye kv=0.22 kva=5 tap=1

New Transformer.IT32_2802 phases=1 Windings=3 Xhl=0.5 %loadLoss =0.5 %noloadLoss =0.2
 ~ wdg=1 bus=30931_1.3 conn= Wye kv=7.97 kva=15 tap=0.956
 ~ wdg=2 bus=BT_32_2802.1.0  conn= Wye kv=0.22 kva=15 tap=1
 ~ wdg=3 bus=BT_32_2802.0.2  conn= Wye kv=0.22 kva=15 tap=1

New Transformer.IT32_2839 phases=1 Windings=3 Xhl=0.5 %loadLoss =0.5 %noloadLoss =0.2
 ~ wdg=1 bus=17012_1.3 conn= Wye kv=7.97 kva=15 tap=0.913
 ~ wdg=2 bus=BT_32_2839.1.0  conn= Wye kv=0.22 kva=15 tap=1
 ~ wdg=3 bus=BT_32_2839.0.2  conn= Wye kv=0.22 kva=15 tap=1

New Transformer.IT32_2909 phases=1 Windings=3 Xhl=0.5 %loadLoss =0.5 %noloadLoss =0.2
 ~ wdg=1 bus=29047_1.2 conn= Wye kv=7.97 kva=7.5 tap=0.956
 ~ wdg=2 bus=BT_32_2909.1.0  conn= Wye kv=0.22 kva=7.5 tap=1
 ~ wdg=3 bus=BT_32_2909.0.2  conn= Wye kv=0.22 kva=7.5 tap=1

New Transformer.IT32_2955 phases=3 Windings=2 Xhl=0.5 %loadLoss =1.81 %noloadLoss =0.47
 ~ wdg=1 bus=30100_1 conn= Delta kv=13.8 kva=30 tap=0.913
 ~ wdg=2 bus=BT_32_2955 conn= Wye kv=0.38 kva=30 tap=1

New Transformer.IT32_3043 phases=1 Windings=3 Xhl=0.5 %loadLoss =0.5 %noloadLoss =0.2
 ~ wdg=1 bus=34031_1.3 conn= Wye kv=7.97 kva=25 tap=0.87
 ~ wdg=2 bus=BT_32_3043.1.0  conn= Wye kv=0.22 kva=25 tap=1
 ~ wdg=3 bus=BT_32_3043.0.2  conn= Wye kv=0.22 kva=25 tap=1

New Transformer.IT32_3307 phases=3 Windings=2 Xhl=0.5 %loadLoss =1.81 %noloadLoss =0.47
 ~ wdg=1 bus=36221_1 conn= Delta kv=13.8 kva=30 tap=0.913
 ~ wdg=2 bus=BT_32_3307 conn= Wye kv=0.38 kva=30 tap=1

New Transformer.IT32_3316 phases=1 Windings=3 Xhl=0.5 %loadLoss =0.5 %noloadLoss =0.2
 ~ wdg=1 bus=40750_1.3 conn= Wye kv=7.97 kva=15 tap=0.956
 ~ wdg=2 bus=BT_32_3316.1.0  conn= Wye kv=0.22 kva=15 tap=1
 ~ wdg=3 bus=BT_32_3316.0.2  conn= Wye kv=0.22 kva=15 tap=1

New Transformer.IT32_3367 phases=3 Windings=2 Xhl=0.5 %loadLoss =1.81 %noloadLoss =0.47
 ~ wdg=1 bus=37228_1 conn= Delta kv=13.8 kva=30 tap=0.957
 ~ wdg=2 bus=BT_32_3367 conn= Wye kv=0.38 kva=30 tap=1

New Transformer.IT32_3634 phases=1 Windings=3 Xhl=0.5 %loadLoss =0.5 %noloadLoss =0.2
 ~ wdg=1 bus=49241_1.3 conn= Wye kv=7.97 kva=10 tap=0.913
 ~ wdg=2 bus=BT_32_3634.1.0  conn= Wye kv=0.22 kva=10 tap=1
 ~ wdg=3 bus=BT_32_3634.0.2  conn= Wye kv=0.22 kva=10 tap=1

New Transformer.IT32_3642 phases=1 Windings=3 Xhl=0.5 %loadLoss =0.5 %noloadLoss =0.2
 ~ wdg=1 bus=75256_1.2 conn= Wye kv=7.97 kva=25 tap=1
 ~ wdg=2 bus=BT_32_3642.1.0  conn= Wye kv=0.22 kva=25 tap=1
 ~ wdg=3 bus=BT_32_3642.0.2  conn= Wye kv=0.22 kva=25 tap=1

New Transformer.IT32_3644 phases=3 Windings=2 Xhl=0.5 %loadLoss =1.81 %noloadLoss =0.47
 ~ wdg=1 bus=90340_1 conn= Delta kv=13.8 kva=30 tap=0.957
 ~ wdg=2 bus=BT_32_3644 conn= Wye kv=0.38 kva=30 tap=1

New Transformer.IT32_3760 phases=1 Windings=3 Xhl=0.5 %loadLoss =0.5 %noloadLoss =0.2
 ~ wdg=1 bus=66984_1.2 conn= Wye kv=7.97 kva=10 tap=0.956
 ~ wdg=2 bus=BT_32_3760.1.0  conn= Wye kv=0.22 kva=10 tap=1
 ~ wdg=3 bus=BT_32_3760.0.2  conn= Wye kv=0.22 kva=10 tap=1

New Transformer.IT32_3858 phases=1 Windings=3 Xhl=0.5 %loadLoss =0.5 %noloadLoss =0.2
 ~ wdg=1 bus=93900_1.1 conn= Wye kv=7.97 kva=15 tap=0.913
 ~ wdg=2 bus=BT_32_3858.1.0  conn= Wye kv=0.22 kva=15 tap=1
 ~ wdg=3 bus=BT_32_3858.0.2  conn= Wye kv=0.22 kva=15 tap=1

New Transformer.IT32_3889 phases=1 Windings=3 Xhl=0.5 %loadLoss =0.5 %noloadLoss =0.2
 ~ wdg=1 bus=75751_1.2 conn= Wye kv=7.97 kva=10 tap=0.956
 ~ wdg=2 bus=BT_32_3889.1.0  conn= Wye kv=0.22 kva=10 tap=1
 ~ wdg=3 bus=BT_32_3889.0.2  conn= Wye kv=0.22 kva=10 tap=1

New Transformer.IT32_4040 phases=1 Windings=3 Xhl=0.5 %loadLoss =0.5 %noloadLoss =0.2
 ~ wdg=1 bus=17006_1.3 conn= Wye kv=7.97 kva=10 tap=0.913
 ~ wdg=2 bus=BT_32_4040.1.0  conn= Wye kv=0.22 kva=10 tap=1
 ~ wdg=3 bus=BT_32_4040.0.2  conn= Wye kv=0.22 kva=10 tap=1

New Transformer.IT32_4074 phases=1 Windings=3 Xhl=0.5 %loadLoss =0.5 %noloadLoss =0.2
 ~ wdg=1 bus=96222_1.3 conn= Wye kv=7.97 kva=25 tap=0.956
 ~ wdg=2 bus=BT_32_4074.1.0  conn= Wye kv=0.22 kva=25 tap=1
 ~ wdg=3 bus=BT_32_4074.0.2  conn= Wye kv=0.22 kva=25 tap=1

New Transformer.IT32_4241 phases=3 Windings=2 Xhl=0.5 %loadLoss =2.14 %noloadLoss =0.54
 ~ wdg=1 bus=48138_2 conn= Delta kv=13.8 kva=15 tap=0.957
 ~ wdg=2 bus=BT_32_4241 conn= Wye kv=0.38 kva=15 tap=1

New Transformer.IT32_4491 phases=1 Windings=3 Xhl=0.5 %loadLoss =0.5 %noloadLoss =0.2
 ~ wdg=1 bus=89638_1.1 conn= Wye kv=7.97 kva=10 tap=0.913
 ~ wdg=2 bus=BT_32_4491.1.0  conn= Wye kv=0.22 kva=10 tap=1
 ~ wdg=3 bus=BT_32_4491.0.2  conn= Wye kv=0.22 kva=10 tap=1

New Transformer.IT32_4580 phases=1 Windings=3 Xhl=0.5 %loadLoss =0.5 %noloadLoss =0.2
 ~ wdg=1 bus=96155_1.3 conn= Wye kv=7.97 kva=7.5 tap=0.87
 ~ wdg=2 bus=BT_32_4580.1.0  conn= Wye kv=0.22 kva=7.5 tap=1
 ~ wdg=3 bus=BT_32_4580.0.2  conn= Wye kv=0.22 kva=7.5 tap=1

New Transformer.IT32_4636 phases=1 Windings=3 Xhl=0.5 %loadLoss =0.5 %noloadLoss =0.2
 ~ wdg=1 bus=101315_1.1 conn= Wye kv=7.97 kva=5 tap=1
 ~ wdg=2 bus=BT_32_4636.1.0  conn= Wye kv=0.22 kva=5 tap=1
 ~ wdg=3 bus=BT_32_4636.0.2  conn= Wye kv=0.22 kva=5 tap=1

New Transformer.IT32_4817 phases=1 Windings=3 Xhl=0.5 %loadLoss =0.5 %noloadLoss =0.2
 ~ wdg=1 bus=17020_1.1 conn= Wye kv=7.97 kva=3 tap=0.956
 ~ wdg=2 bus=BT_32_4817.1.0  conn= Wye kv=0.22 kva=3 tap=1
 ~ wdg=3 bus=BT_32_4817.0.2  conn= Wye kv=0.22 kva=3 tap=1

New Transformer.IT32_4840 phases=1 Windings=3 Xhl=0.5 %loadLoss =0.5 %noloadLoss =0.2
 ~ wdg=1 bus=110639_1.3 conn= Wye kv=7.97 kva=15 tap=0.956
 ~ wdg=2 bus=BT_32_4840.1.0  conn= Wye kv=0.22 kva=15 tap=1
 ~ wdg=3 bus=BT_32_4840.0.2  conn= Wye kv=0.22 kva=15 tap=1

New Transformer.IT32_4877 phases=1 Windings=3 Xhl=0.5 %loadLoss =0.5 %noloadLoss =0.2
 ~ wdg=1 bus=107898_1.2 conn= Wye kv=7.97 kva=7.5 tap=1
 ~ wdg=2 bus=BT_32_4877.1.0  conn= Wye kv=0.22 kva=7.5 tap=1
 ~ wdg=3 bus=BT_32_4877.0.2  conn= Wye kv=0.22 kva=7.5 tap=1

New Transformer.IT32_4890 phases=3 Windings=2 Xhl=0.5 %loadLoss =2.14 %noloadLoss =0.54
 ~ wdg=1 bus=40754_1 conn= Delta kv=13.8 kva=15 tap=0.957
 ~ wdg=2 bus=BT_32_4890 conn= Wye kv=0.38 kva=15 tap=1

New Transformer.IT32_5001 phases=1 Windings=3 Xhl=0.5 %loadLoss =0.5 %noloadLoss =0.2
 ~ wdg=1 bus=48868_1.2 conn= Wye kv=7.97 kva=10 tap=1
 ~ wdg=2 bus=BT_32_5001.1.0  conn= Wye kv=0.22 kva=10 tap=1
 ~ wdg=3 bus=BT_32_5001.0.2  conn= Wye kv=0.22 kva=10 tap=1

New Transformer.IT32_5002 phases=1 Windings=3 Xhl=0.5 %loadLoss =0.5 %noloadLoss =0.2
 ~ wdg=1 bus=17192_1.2 conn= Wye kv=7.97 kva=7.5 tap=0.913
 ~ wdg=2 bus=BT_32_5002.1.0  conn= Wye kv=0.22 kva=7.5 tap=1
 ~ wdg=3 bus=BT_32_5002.0.2  conn= Wye kv=0.22 kva=7.5 tap=1

New Transformer.IT32_5009 phases=3 Windings=2 Xhl=0.5 %loadLoss =1.65 %noloadLoss =0.41
 ~ wdg=1 bus=75551_1 conn= Delta kv=13.8 kva=45 tap=0.957
 ~ wdg=2 bus=BT_32_5009 conn= Wye kv=0.38 kva=45 tap=1

New Transformer.IT32_529 phases=3 Windings=2 Xhl=0.5 %loadLoss =1.81 %noloadLoss =0.47
 ~ wdg=1 bus=15580_1 conn= Delta kv=13.8 kva=30 tap=0.957
 ~ wdg=2 bus=BT_32_529 conn= Wye kv=0.38 kva=30 tap=1

New Transformer.IT32_530 phases=1 Windings=3 Xhl=0.5 %loadLoss =0.5 %noloadLoss =0.2
 ~ wdg=1 bus=78018_1.3 conn= Wye kv=7.97 kva=15 tap=0.913
 ~ wdg=2 bus=BT_32_530.1.0  conn= Wye kv=0.22 kva=15 tap=1
 ~ wdg=3 bus=BT_32_530.0.2  conn= Wye kv=0.22 kva=15 tap=1

New Transformer.IT32_5430 phases=1 Windings=3 Xhl=0.5 %loadLoss =0.5 %noloadLoss =0.2
 ~ wdg=1 bus=11833_1.2 conn= Wye kv=7.97 kva=25 tap=0.956
 ~ wdg=2 bus=BT_32_5430.1.0  conn= Wye kv=0.22 kva=25 tap=1
 ~ wdg=3 bus=BT_32_5430.0.2  conn= Wye kv=0.22 kva=25 tap=1

New Transformer.IT32_5516 phases=1 Windings=3 Xhl=0.5 %loadLoss =0.5 %noloadLoss =0.2
 ~ wdg=1 bus=19440_1.3 conn= Wye kv=7.97 kva=25 tap=0.956
 ~ wdg=2 bus=BT_32_5516.1.0  conn= Wye kv=0.22 kva=25 tap=1
 ~ wdg=3 bus=BT_32_5516.0.2  conn= Wye kv=0.22 kva=25 tap=1

New Transformer.IT32_552 phases=1 Windings=3 Xhl=0.5 %loadLoss =0.5 %noloadLoss =0.2
 ~ wdg=1 bus=85198_1.3 conn= Wye kv=7.97 kva=25 tap=0.913
 ~ wdg=2 bus=BT_32_552.1.0  conn= Wye kv=0.22 kva=25 tap=1
 ~ wdg=3 bus=BT_32_552.0.2  conn= Wye kv=0.22 kva=25 tap=1

New Transformer.IT32_5523 phases=3 Windings=2 Xhl=0.5 %loadLoss =1.65 %noloadLoss =0.41
 ~ wdg=1 bus=112694_1 conn= Delta kv=13.8 kva=45 tap=0.913
 ~ wdg=2 bus=BT_32_5523 conn= Wye kv=0.38 kva=45 tap=1

New Transformer.IT32_5662 phases=3 Windings=2 Xhl=0.5 %loadLoss =1.81 %noloadLoss =0.47
 ~ wdg=1 bus=40760_1 conn= Delta kv=13.8 kva=30 tap=0.957
 ~ wdg=2 bus=BT_32_5662 conn= Wye kv=0.38 kva=30 tap=1

New Transformer.IT32_5665 phases=1 Windings=3 Xhl=0.5 %loadLoss =0.5 %noloadLoss =0.2
 ~ wdg=1 bus=61898_1.1 conn= Wye kv=7.97 kva=10 tap=1
 ~ wdg=2 bus=BT_32_5665.1.0  conn= Wye kv=0.22 kva=10 tap=1
 ~ wdg=3 bus=BT_32_5665.0.2  conn= Wye kv=0.22 kva=10 tap=1

New Transformer.IT32_5676 phases=3 Windings=2 Xhl=0.5 %loadLoss =1.65 %noloadLoss =0.41
 ~ wdg=1 bus=19417_1 conn= Delta kv=13.8 kva=45 tap=0.913
 ~ wdg=2 bus=BT_32_5676 conn= Wye kv=0.38 kva=45 tap=1

New Transformer.IT32_5680 phases=1 Windings=3 Xhl=0.5 %loadLoss =0.5 %noloadLoss =0.2
 ~ wdg=1 bus=61922_1.3 conn= Wye kv=7.97 kva=25 tap=0.913
 ~ wdg=2 bus=BT_32_5680.1.0  conn= Wye kv=0.22 kva=25 tap=1
 ~ wdg=3 bus=BT_32_5680.0.2  conn= Wye kv=0.22 kva=25 tap=1

New Transformer.IT32_5744 phases=1 Windings=3 Xhl=0.5 %loadLoss =0.5 %noloadLoss =0.2
 ~ wdg=1 bus=16990_1.3 conn= Wye kv=7.97 kva=15 tap=0.913
 ~ wdg=2 bus=BT_32_5744.1.0  conn= Wye kv=0.22 kva=15 tap=1
 ~ wdg=3 bus=BT_32_5744.0.2  conn= Wye kv=0.22 kva=15 tap=1

New Transformer.IT32_5894 phases=1 Windings=3 Xhl=0.5 %loadLoss =0.5 %noloadLoss =0.2
 ~ wdg=1 bus=78039_1.1 conn= Wye kv=7.97 kva=10 tap=1
 ~ wdg=2 bus=BT_32_5894.1.0  conn= Wye kv=0.22 kva=10 tap=1
 ~ wdg=3 bus=BT_32_5894.0.2  conn= Wye kv=0.22 kva=10 tap=1

New Transformer.IT32_5895 phases=1 Windings=3 Xhl=0.5 %loadLoss =0.5 %noloadLoss =0.2
 ~ wdg=1 bus=18756_1.3 conn= Wye kv=7.97 kva=10 tap=1
 ~ wdg=2 bus=BT_32_5895.1.0  conn= Wye kv=0.22 kva=10 tap=1
 ~ wdg=3 bus=BT_32_5895.0.2  conn= Wye kv=0.22 kva=10 tap=1

New Transformer.IT32_5899 phases=3 Windings=2 Xhl=0.5 %loadLoss =1.65 %noloadLoss =0.41
 ~ wdg=1 bus=139797_1 conn= Delta kv=13.8 kva=45 tap=1
 ~ wdg=2 bus=BT_32_5899 conn= Wye kv=0.38 kva=45 tap=1

New Transformer.IT32_6021 phases=1 Windings=3 Xhl=0.5 %loadLoss =0.5 %noloadLoss =0.2
 ~ wdg=1 bus=67205_2.2 conn= Wye kv=7.97 kva=10 tap=1
 ~ wdg=2 bus=BT_32_6021.1.0  conn= Wye kv=0.22 kva=10 tap=1
 ~ wdg=3 bus=BT_32_6021.0.2  conn= Wye kv=0.22 kva=10 tap=1

New Transformer.IT32_6351 phases=3 Windings=2 Xhl=0.5 %loadLoss =1.81 %noloadLoss =0.47
 ~ wdg=1 bus=43816_1 conn= Delta kv=13.8 kva=30 tap=0.957
 ~ wdg=2 bus=BT_32_6351 conn= Wye kv=0.38 kva=30 tap=1

New Transformer.IT32_6858 phases=1 Windings=3 Xhl=0.5 %loadLoss =0.5 %noloadLoss =0.2
 ~ wdg=1 bus=56802_1.2 conn= Wye kv=7.97 kva=10 tap=0.999
 ~ wdg=2 bus=BT_32_6858.1.0  conn= Wye kv=0.22 kva=10 tap=1
 ~ wdg=3 bus=BT_32_6858.0.2  conn= Wye kv=0.22 kva=10 tap=1

New Transformer.IT32_7028 phases=3 Windings=2 Xhl=0.5 %loadLoss =1.65 %noloadLoss =0.41
 ~ wdg=1 bus=72407_1 conn= Delta kv=13.8 kva=45 tap=0.913
 ~ wdg=2 bus=BT_32_7028 conn= Wye kv=0.38 kva=45 tap=1

New Transformer.IT32_7204 phases=1 Windings=3 Xhl=0.5 %loadLoss =0.5 %noloadLoss =0.2
 ~ wdg=1 bus=134816_1.2 conn= Wye kv=7.97 kva=25 tap=0.956
 ~ wdg=2 bus=BT_32_7204.1.0  conn= Wye kv=0.22 kva=25 tap=1
 ~ wdg=3 bus=BT_32_7204.0.2  conn= Wye kv=0.22 kva=25 tap=1

New Transformer.IT32_7384 phases=1 Windings=3 Xhl=0.5 %loadLoss =0.5 %noloadLoss =0.2
 ~ wdg=1 bus=137171_1.2 conn= Wye kv=7.97 kva=10 tap=0.956
 ~ wdg=2 bus=BT_32_7384.1.0  conn= Wye kv=0.22 kva=10 tap=1
 ~ wdg=3 bus=BT_32_7384.0.2  conn= Wye kv=0.22 kva=10 tap=1

New Transformer.IT32_7413 phases=1 Windings=3 Xhl=0.5 %loadLoss =0.5 %noloadLoss =0.2
 ~ wdg=1 bus=17029_1.3 conn= Wye kv=7.97 kva=25 tap=0.956
 ~ wdg=2 bus=BT_32_7413.1.0  conn= Wye kv=0.22 kva=25 tap=1
 ~ wdg=3 bus=BT_32_7413.0.2  conn= Wye kv=0.22 kva=25 tap=1

New Transformer.IT32_7419 phases=1 Windings=3 Xhl=0.5 %loadLoss =0.5 %noloadLoss =0.2
 ~ wdg=1 bus=135346_1.3 conn= Wye kv=7.97 kva=25 tap=0.913
 ~ wdg=2 bus=BT_32_7419.1.0  conn= Wye kv=0.22 kva=25 tap=1
 ~ wdg=3 bus=BT_32_7419.0.2  conn= Wye kv=0.22 kva=25 tap=1

New Transformer.IT32_7485 phases=3 Windings=2 Xhl=0.5 %loadLoss =1.81 %noloadLoss =0.47
 ~ wdg=1 bus=77617_1 conn= Delta kv=13.8 kva=30 tap=0.957
 ~ wdg=2 bus=BT_32_7485 conn= Wye kv=0.38 kva=30 tap=1

New Transformer.IT32_7533 phases=1 Windings=3 Xhl=0.5 %loadLoss =0.5 %noloadLoss =0.2
 ~ wdg=1 bus=126232_1.2 conn= Wye kv=7.97 kva=25 tap=0.913
 ~ wdg=2 bus=BT_32_7533.1.0  conn= Wye kv=0.22 kva=25 tap=1
 ~ wdg=3 bus=BT_32_7533.0.2  conn= Wye kv=0.22 kva=25 tap=1

New Transformer.IT32_7534 phases=3 Windings=2 Xhl=0.5 %loadLoss =1.46 %noloadLoss =0.37
 ~ wdg=1 bus=134761_1 conn= Delta kv=13.8 kva=75 tap=0.913
 ~ wdg=2 bus=BT_32_7534 conn= Wye kv=0.38 kva=75 tap=1

New Transformer.IT32_7739 phases=3 Windings=2 Xhl=0.5 %loadLoss =1.65 %noloadLoss =0.41
 ~ wdg=1 bus=29733_1 conn= Delta kv=13.8 kva=45 tap=1
 ~ wdg=2 bus=BT_32_7739 conn= Wye kv=0.38 kva=45 tap=1

New Transformer.IT32_7860 phases=3 Windings=2 Xhl=0.5 %loadLoss =1.65 %noloadLoss =0.41
 ~ wdg=1 bus=140038_1 conn= Delta kv=13.8 kva=45 tap=0.957
 ~ wdg=2 bus=BT_32_7860 conn= Wye kv=0.38 kva=45 tap=1

New Transformer.IT32_932 phases=1 Windings=3 Xhl=0.5 %loadLoss =0.5 %noloadLoss =0.2
 ~ wdg=1 bus=101972_1.3 conn= Wye kv=7.97 kva=15 tap=0.956
 ~ wdg=2 bus=BT_32_932.1.0  conn= Wye kv=0.22 kva=15 tap=1
 ~ wdg=3 bus=BT_32_932.0.2  conn= Wye kv=0.22 kva=15 tap=1

New Transformer.IT32_961 phases=3 Windings=2 Xhl=0.5 %loadLoss =1.65 %noloadLoss =0.41
 ~ wdg=1 bus=15593_1 conn= Delta kv=13.8 kva=45 tap=0.957
 ~ wdg=2 bus=BT_32_961 conn= Wye kv=0.38 kva=45 tap=1

New Transformer.IT39_10010 phases=1 Windings=3 Xhl=0.5 %loadLoss =0.5 %noloadLoss =0.2
 ~ wdg=1 bus=15523_1.3 conn= Wye kv=7.97 kva=25 tap=0.913
 ~ wdg=2 bus=BT_39_10010.1.0  conn= Wye kv=0.22 kva=25 tap=1
 ~ wdg=3 bus=BT_39_10010.0.2  conn= Wye kv=0.22 kva=25 tap=1

New Transformer.IT39_10012 phases=1 Windings=3 Xhl=0.5 %loadLoss =0.5 %noloadLoss =0.2
 ~ wdg=1 bus=141422_1.3 conn= Wye kv=7.97 kva=25 tap=0.956
 ~ wdg=2 bus=BT_39_10012.1.0  conn= Wye kv=0.22 kva=25 tap=1
 ~ wdg=3 bus=BT_39_10012.0.2  conn= Wye kv=0.22 kva=25 tap=1

New Transformer.IT39_10042 phases=1 Windings=3 Xhl=0.5 %loadLoss =0.5 %noloadLoss =0.2
 ~ wdg=1 bus=103983_1.2 conn= Wye kv=7.97 kva=10 tap=0.913
 ~ wdg=2 bus=BT_39_10042.1.0  conn= Wye kv=0.22 kva=10 tap=1
 ~ wdg=3 bus=BT_39_10042.0.2  conn= Wye kv=0.22 kva=10 tap=1

New Transformer.IT39_1008 phases=3 Windings=2 Xhl=0.5 %loadLoss =1.46 %noloadLoss =0.37
 ~ wdg=1 bus=14239_1 conn= Delta kv=13.8 kva=75 tap=0.913
 ~ wdg=2 bus=BT_39_1008 conn= Wye kv=0.38 kva=75 tap=1

New Transformer.IT39_10138 phases=3 Windings=2 Xhl=0.5 %loadLoss =1.46 %noloadLoss =0.37
 ~ wdg=1 bus=142902_1 conn= Delta kv=13.8 kva=75 tap=0.913
 ~ wdg=2 bus=BT_39_10138 conn= Wye kv=0.38 kva=75 tap=1

New Transformer.IT39_10219 phases=3 Windings=2 Xhl=0.5 %loadLoss =1.81 %noloadLoss =0.47
 ~ wdg=1 bus=15524_1 conn= Delta kv=13.8 kva=30 tap=0.913
 ~ wdg=2 bus=BT_39_10219 conn= Wye kv=0.38 kva=30 tap=1

New Transformer.IT39_10220 phases=1 Windings=3 Xhl=0.5 %loadLoss =0.5 %noloadLoss =0.2
 ~ wdg=1 bus=144538_1.1 conn= Wye kv=7.97 kva=10 tap=0.913
 ~ wdg=2 bus=BT_39_10220.1.0  conn= Wye kv=0.22 kva=10 tap=1
 ~ wdg=3 bus=BT_39_10220.0.2  conn= Wye kv=0.22 kva=10 tap=1

New Transformer.IT39_10221 phases=1 Windings=3 Xhl=0.5 %loadLoss =0.5 %noloadLoss =0.2
 ~ wdg=1 bus=14834_1.2 conn= Wye kv=7.97 kva=25 tap=0.913
 ~ wdg=2 bus=BT_39_10221.1.0  conn= Wye kv=0.22 kva=25 tap=1
 ~ wdg=3 bus=BT_39_10221.0.2  conn= Wye kv=0.22 kva=25 tap=1

New Transformer.IT39_10222 phases=1 Windings=3 Xhl=0.5 %loadLoss =0.5 %noloadLoss =0.2
 ~ wdg=1 bus=14827_1.2 conn= Wye kv=7.97 kva=10 tap=0.913
 ~ wdg=2 bus=BT_39_10222.1.0  conn= Wye kv=0.22 kva=10 tap=1
 ~ wdg=3 bus=BT_39_10222.0.2  conn= Wye kv=0.22 kva=10 tap=1

New Transformer.IT39_10346 phases=1 Windings=3 Xhl=0.5 %loadLoss =0.5 %noloadLoss =0.2
 ~ wdg=1 bus=19106_1.3 conn= Wye kv=7.97 kva=37.5 tap=0.913
 ~ wdg=2 bus=BT_39_10346.1.0  conn= Wye kv=0.22 kva=37.5 tap=1
 ~ wdg=3 bus=BT_39_10346.0.2  conn= Wye kv=0.22 kva=37.5 tap=1

New Transformer.IT39_1035 phases=1 Windings=3 Xhl=0.5 %loadLoss =0.5 %noloadLoss =0.2
 ~ wdg=1 bus=75323_1.3 conn= Wye kv=7.97 kva=15 tap=0.913
 ~ wdg=2 bus=BT_39_1035.1.0  conn= Wye kv=0.22 kva=15 tap=1
 ~ wdg=3 bus=BT_39_1035.0.2  conn= Wye kv=0.22 kva=15 tap=1

New Transformer.IT39_1036 phases=1 Windings=3 Xhl=0.5 %loadLoss =0.5 %noloadLoss =0.2
 ~ wdg=1 bus=104358_1.1 conn= Wye kv=7.97 kva=25 tap=0.956
 ~ wdg=2 bus=BT_39_1036.1.0  conn= Wye kv=0.22 kva=25 tap=1
 ~ wdg=3 bus=BT_39_1036.0.2  conn= Wye kv=0.22 kva=25 tap=1

New Transformer.IT39_10440 phases=1 Windings=3 Xhl=0.5 %loadLoss =0.5 %noloadLoss =0.2
 ~ wdg=1 bus=144891_1.1 conn= Wye kv=7.97 kva=10 tap=1
 ~ wdg=2 bus=BT_39_10440.1.0  conn= Wye kv=0.22 kva=10 tap=1
 ~ wdg=3 bus=BT_39_10440.0.2  conn= Wye kv=0.22 kva=10 tap=1

New Transformer.IT39_1055 phases=1 Windings=3 Xhl=0.5 %loadLoss =0.5 %noloadLoss =0.2
 ~ wdg=1 bus=16946_1.3 conn= Wye kv=7.97 kva=15 tap=1
 ~ wdg=2 bus=BT_39_1055.1.0  conn= Wye kv=0.22 kva=15 tap=1
 ~ wdg=3 bus=BT_39_1055.0.2  conn= Wye kv=0.22 kva=15 tap=1

New Transformer.IT39_1056 phases=1 Windings=3 Xhl=0.5 %loadLoss =0.5 %noloadLoss =0.2
 ~ wdg=1 bus=56845_1.3 conn= Wye kv=7.97 kva=25 tap=1
 ~ wdg=2 bus=BT_39_1056.1.0  conn= Wye kv=0.22 kva=25 tap=1
 ~ wdg=3 bus=BT_39_1056.0.2  conn= Wye kv=0.22 kva=25 tap=1

New Transformer.IT39_1123 phases=1 Windings=3 Xhl=0.5 %loadLoss =0.5 %noloadLoss =0.2
 ~ wdg=1 bus=17222_1.2 conn= Wye kv=7.97 kva=25 tap=0.956
 ~ wdg=2 bus=BT_39_1123.1.0  conn= Wye kv=0.22 kva=25 tap=1
 ~ wdg=3 bus=BT_39_1123.0.2  conn= Wye kv=0.22 kva=25 tap=1

New Transformer.IT39_1133 phases=1 Windings=3 Xhl=0.5 %loadLoss =0.5 %noloadLoss =0.2
 ~ wdg=1 bus=104571_1.3 conn= Wye kv=7.97 kva=15 tap=0.913
 ~ wdg=2 bus=BT_39_1133.1.0  conn= Wye kv=0.22 kva=15 tap=1
 ~ wdg=3 bus=BT_39_1133.0.2  conn= Wye kv=0.22 kva=15 tap=1

New Transformer.IT39_1134 phases=1 Windings=3 Xhl=0.5 %loadLoss =0.5 %noloadLoss =0.2
 ~ wdg=1 bus=17604_1.3 conn= Wye kv=7.97 kva=25 tap=0.913
 ~ wdg=2 bus=BT_39_1134.1.0  conn= Wye kv=0.22 kva=25 tap=1
 ~ wdg=3 bus=BT_39_1134.0.2  conn= Wye kv=0.22 kva=25 tap=1

New Transformer.IT39_1135 phases=1 Windings=3 Xhl=0.5 %loadLoss =0.5 %noloadLoss =0.2
 ~ wdg=1 bus=17615_1.3 conn= Wye kv=7.97 kva=10 tap=0.87
 ~ wdg=2 bus=BT_39_1135.1.0  conn= Wye kv=0.22 kva=10 tap=1
 ~ wdg=3 bus=BT_39_1135.0.2  conn= Wye kv=0.22 kva=10 tap=1

New Transformer.IT39_1142 phases=1 Windings=3 Xhl=0.5 %loadLoss =0.5 %noloadLoss =0.2
 ~ wdg=1 bus=19080_1.2 conn= Wye kv=7.97 kva=10 tap=0.87
 ~ wdg=2 bus=BT_39_1142.1.0  conn= Wye kv=0.22 kva=10 tap=1
 ~ wdg=3 bus=BT_39_1142.0.2  conn= Wye kv=0.22 kva=10 tap=1

New Transformer.IT39_1143 phases=1 Windings=3 Xhl=0.5 %loadLoss =0.5 %noloadLoss =0.2
 ~ wdg=1 bus=18338_1.1 conn= Wye kv=7.97 kva=15 tap=0.913
 ~ wdg=2 bus=BT_39_1143.1.0  conn= Wye kv=0.22 kva=15 tap=1
 ~ wdg=3 bus=BT_39_1143.0.2  conn= Wye kv=0.22 kva=15 tap=1

New Transformer.IT39_1144 phases=1 Windings=3 Xhl=0.5 %loadLoss =0.5 %noloadLoss =0.2
 ~ wdg=1 bus=18729_1.3 conn= Wye kv=7.97 kva=15 tap=0.913
 ~ wdg=2 bus=BT_39_1144.1.0  conn= Wye kv=0.22 kva=15 tap=1
 ~ wdg=3 bus=BT_39_1144.0.2  conn= Wye kv=0.22 kva=15 tap=1

New Transformer.IT39_1145 phases=1 Windings=3 Xhl=0.5 %loadLoss =0.5 %noloadLoss =0.2
 ~ wdg=1 bus=18726_1.3 conn= Wye kv=7.97 kva=10 tap=0.913
 ~ wdg=2 bus=BT_39_1145.1.0  conn= Wye kv=0.22 kva=10 tap=1
 ~ wdg=3 bus=BT_39_1145.0.2  conn= Wye kv=0.22 kva=10 tap=1

New Transformer.IT39_1147 phases=1 Windings=3 Xhl=0.5 %loadLoss =0.5 %noloadLoss =0.2
 ~ wdg=1 bus=18724_1.1 conn= Wye kv=7.97 kva=15 tap=0.87
 ~ wdg=2 bus=BT_39_1147.1.0  conn= Wye kv=0.22 kva=15 tap=1
 ~ wdg=3 bus=BT_39_1147.0.2  conn= Wye kv=0.22 kva=15 tap=1

New Transformer.IT39_1149 phases=3 Windings=2 Xhl=0.5 %loadLoss =1.65 %noloadLoss =0.41
 ~ wdg=1 bus=18361_1 conn= Delta kv=13.8 kva=45 tap=1
 ~ wdg=2 bus=BT_39_1149 conn= Wye kv=0.38 kva=45 tap=1

New Transformer.IT39_1183 phases=1 Windings=3 Xhl=0.5 %loadLoss =0.5 %noloadLoss =0.2
 ~ wdg=1 bus=15046_1.3 conn= Wye kv=7.97 kva=15 tap=1
 ~ wdg=2 bus=BT_39_1183.1.0  conn= Wye kv=0.22 kva=15 tap=1
 ~ wdg=3 bus=BT_39_1183.0.2  conn= Wye kv=0.22 kva=15 tap=1

New Transformer.IT39_1221 phases=1 Windings=3 Xhl=0.5 %loadLoss =0.5 %noloadLoss =0.2
 ~ wdg=1 bus=16547_1.3 conn= Wye kv=7.97 kva=15 tap=0.913
 ~ wdg=2 bus=BT_39_1221.1.0  conn= Wye kv=0.22 kva=15 tap=1
 ~ wdg=3 bus=BT_39_1221.0.2  conn= Wye kv=0.22 kva=15 tap=1

New Transformer.IT39_1341 phases=1 Windings=3 Xhl=0.5 %loadLoss =0.5 %noloadLoss =0.2
 ~ wdg=1 bus=144027_1.3 conn= Wye kv=7.97 kva=25 tap=0.999
 ~ wdg=2 bus=BT_39_1341.1.0  conn= Wye kv=0.22 kva=25 tap=1
 ~ wdg=3 bus=BT_39_1341.0.2  conn= Wye kv=0.22 kva=25 tap=1

New Transformer.IT39_1344 phases=1 Windings=3 Xhl=0.5 %loadLoss =0.5 %noloadLoss =0.2
 ~ wdg=1 bus=5333_1.1 conn= Wye kv=7.97 kva=25 tap=1
 ~ wdg=2 bus=BT_39_1344.1.0  conn= Wye kv=0.22 kva=25 tap=1
 ~ wdg=3 bus=BT_39_1344.0.2  conn= Wye kv=0.22 kva=25 tap=1

New Transformer.IT39_1345 phases=1 Windings=3 Xhl=0.5 %loadLoss =0.5 %noloadLoss =0.2
 ~ wdg=1 bus=20146_1.2 conn= Wye kv=7.97 kva=25 tap=0.913
 ~ wdg=2 bus=BT_39_1345.1.0  conn= Wye kv=0.22 kva=25 tap=1
 ~ wdg=3 bus=BT_39_1345.0.2  conn= Wye kv=0.22 kva=25 tap=1

New Transformer.IT39_1346 phases=1 Windings=3 Xhl=0.5 %loadLoss =0.5 %noloadLoss =0.2
 ~ wdg=1 bus=20162_1.2 conn= Wye kv=7.97 kva=10 tap=0.913
 ~ wdg=2 bus=BT_39_1346.1.0  conn= Wye kv=0.22 kva=10 tap=1
 ~ wdg=3 bus=BT_39_1346.0.2  conn= Wye kv=0.22 kva=10 tap=1

New Transformer.IT39_1347 phases=1 Windings=3 Xhl=0.5 %loadLoss =0.5 %noloadLoss =0.2
 ~ wdg=1 bus=20552_1.2 conn= Wye kv=7.97 kva=10 tap=0.913
 ~ wdg=2 bus=BT_39_1347.1.0  conn= Wye kv=0.22 kva=10 tap=1
 ~ wdg=3 bus=BT_39_1347.0.2  conn= Wye kv=0.22 kva=10 tap=1

New Transformer.IT39_1348 phases=1 Windings=3 Xhl=0.5 %loadLoss =0.5 %noloadLoss =0.2
 ~ wdg=1 bus=44294_1.2 conn= Wye kv=7.97 kva=10 tap=0.913
 ~ wdg=2 bus=BT_39_1348.1.0  conn= Wye kv=0.22 kva=10 tap=1
 ~ wdg=3 bus=BT_39_1348.0.2  conn= Wye kv=0.22 kva=10 tap=1

New Transformer.IT39_1429 phases=1 Windings=3 Xhl=0.5 %loadLoss =0.5 %noloadLoss =0.2
 ~ wdg=1 bus=20975_1.2 conn= Wye kv=7.97 kva=25 tap=0.913
 ~ wdg=2 bus=BT_39_1429.1.0  conn= Wye kv=0.22 kva=25 tap=1
 ~ wdg=3 bus=BT_39_1429.0.2  conn= Wye kv=0.22 kva=25 tap=1

New Transformer.IT39_1463 phases=1 Windings=3 Xhl=0.5 %loadLoss =0.5 %noloadLoss =0.2
 ~ wdg=1 bus=75315_1.3 conn= Wye kv=7.97 kva=5 tap=0.913
 ~ wdg=2 bus=BT_39_1463.1.0  conn= Wye kv=0.22 kva=5 tap=1
 ~ wdg=3 bus=BT_39_1463.0.2  conn= Wye kv=0.22 kva=5 tap=1

New Transformer.IT39_1686 phases=1 Windings=3 Xhl=0.5 %loadLoss =0.5 %noloadLoss =0.2
 ~ wdg=1 bus=140148_2.2 conn= Wye kv=7.97 kva=7.5 tap=0.999
 ~ wdg=2 bus=BT_39_1686.1.0  conn= Wye kv=0.22 kva=7.5 tap=1
 ~ wdg=3 bus=BT_39_1686.0.2  conn= Wye kv=0.22 kva=7.5 tap=1

New Transformer.IT39_1692 phases=1 Windings=3 Xhl=0.5 %loadLoss =0.5 %noloadLoss =0.2
 ~ wdg=1 bus=20954_1.1 conn= Wye kv=7.97 kva=25 tap=0.913
 ~ wdg=2 bus=BT_39_1692.1.0  conn= Wye kv=0.22 kva=25 tap=1
 ~ wdg=3 bus=BT_39_1692.0.2  conn= Wye kv=0.22 kva=25 tap=1

New Transformer.IT39_1770 phases=1 Windings=3 Xhl=0.5 %loadLoss =0.5 %noloadLoss =0.2
 ~ wdg=1 bus=20151_1.2 conn= Wye kv=7.97 kva=10 tap=0.913
 ~ wdg=2 bus=BT_39_1770.1.0  conn= Wye kv=0.22 kva=10 tap=1
 ~ wdg=3 bus=BT_39_1770.0.2  conn= Wye kv=0.22 kva=10 tap=1

New Transformer.IT39_1908 phases=1 Windings=3 Xhl=0.5 %loadLoss =0.5 %noloadLoss =0.2
 ~ wdg=1 bus=20524_1.3 conn= Wye kv=7.97 kva=10 tap=0.913
 ~ wdg=2 bus=BT_39_1908.1.0  conn= Wye kv=0.22 kva=10 tap=1
 ~ wdg=3 bus=BT_39_1908.0.2  conn= Wye kv=0.22 kva=10 tap=1

New Transformer.IT39_1996 phases=1 Windings=3 Xhl=0.5 %loadLoss =0.5 %noloadLoss =0.2
 ~ wdg=1 bus=135510_1.3 conn= Wye kv=7.97 kva=10 tap=0.913
 ~ wdg=2 bus=BT_39_1996.1.0  conn= Wye kv=0.22 kva=10 tap=1
 ~ wdg=3 bus=BT_39_1996.0.2  conn= Wye kv=0.22 kva=10 tap=1

New Transformer.IT39_2004 phases=1 Windings=3 Xhl=0.5 %loadLoss =0.5 %noloadLoss =0.2
 ~ wdg=1 bus=16465_1.2 conn= Wye kv=7.97 kva=10 tap=0.913
 ~ wdg=2 bus=BT_39_2004.1.0  conn= Wye kv=0.22 kva=10 tap=1
 ~ wdg=3 bus=BT_39_2004.0.2  conn= Wye kv=0.22 kva=10 tap=1

New Transformer.IT39_2005 phases=1 Windings=3 Xhl=0.5 %loadLoss =0.5 %noloadLoss =0.2
 ~ wdg=1 bus=16473_1.2 conn= Wye kv=7.97 kva=25 tap=0.913
 ~ wdg=2 bus=BT_39_2005.1.0  conn= Wye kv=0.22 kva=25 tap=1
 ~ wdg=3 bus=BT_39_2005.0.2  conn= Wye kv=0.22 kva=25 tap=1

New Transformer.IT39_2006 phases=3 Windings=2 Xhl=0.5 %loadLoss =1.81 %noloadLoss =0.47
 ~ wdg=1 bus=137587_1 conn= Delta kv=13.8 kva=30 tap=0.913
 ~ wdg=2 bus=BT_39_2006 conn= Wye kv=0.38 kva=30 tap=1

New Transformer.IT39_2052 phases=1 Windings=3 Xhl=0.5 %loadLoss =0.5 %noloadLoss =0.2
 ~ wdg=1 bus=20556_1.2 conn= Wye kv=7.97 kva=10 tap=1
 ~ wdg=2 bus=BT_39_2052.1.0  conn= Wye kv=0.22 kva=10 tap=1
 ~ wdg=3 bus=BT_39_2052.0.2  conn= Wye kv=0.22 kva=10 tap=1

New Transformer.IT39_2053 phases=1 Windings=3 Xhl=0.5 %loadLoss =0.5 %noloadLoss =0.2
 ~ wdg=1 bus=75126_1.2 conn= Wye kv=7.97 kva=5 tap=0.913
 ~ wdg=2 bus=BT_39_2053.1.0  conn= Wye kv=0.22 kva=5 tap=1
 ~ wdg=3 bus=BT_39_2053.0.2  conn= Wye kv=0.22 kva=5 tap=1

New Transformer.IT39_2054 phases=1 Windings=3 Xhl=0.5 %loadLoss =0.5 %noloadLoss =0.2
 ~ wdg=1 bus=20581_1.2 conn= Wye kv=7.97 kva=10 tap=0.913
 ~ wdg=2 bus=BT_39_2054.1.0  conn= Wye kv=0.22 kva=10 tap=1
 ~ wdg=3 bus=BT_39_2054.0.2  conn= Wye kv=0.22 kva=10 tap=1

New Transformer.IT39_2055 phases=1 Windings=3 Xhl=0.5 %loadLoss =0.5 %noloadLoss =0.2
 ~ wdg=1 bus=14846_1.2 conn= Wye kv=7.97 kva=10 tap=0.913
 ~ wdg=2 bus=BT_39_2055.1.0  conn= Wye kv=0.22 kva=10 tap=1
 ~ wdg=3 bus=BT_39_2055.0.2  conn= Wye kv=0.22 kva=10 tap=1

New Transformer.IT39_2056 phases=1 Windings=3 Xhl=0.5 %loadLoss =0.5 %noloadLoss =0.2
 ~ wdg=1 bus=14831_1.2 conn= Wye kv=7.97 kva=25 tap=0.956
 ~ wdg=2 bus=BT_39_2056.1.0  conn= Wye kv=0.22 kva=25 tap=1
 ~ wdg=3 bus=BT_39_2056.0.2  conn= Wye kv=0.22 kva=25 tap=1

New Transformer.IT39_2087 phases=3 Windings=2 Xhl=0.5 %loadLoss =2.14 %noloadLoss =0.54
 ~ wdg=1 bus=133458_1 conn= Delta kv=13.8 kva=15 tap=0.913
 ~ wdg=2 bus=BT_39_2087 conn= Wye kv=0.38 kva=15 tap=1

New Transformer.IT39_2134 phases=3 Windings=2 Xhl=0.5 %loadLoss =1.65 %noloadLoss =0.41
 ~ wdg=1 bus=112632_1 conn= Delta kv=13.8 kva=45 tap=0.957
 ~ wdg=2 bus=BT_39_2134 conn= Wye kv=0.38 kva=45 tap=1

New Transformer.IT39_2214 phases=1 Windings=3 Xhl=0.5 %loadLoss =0.5 %noloadLoss =0.2
 ~ wdg=1 bus=14858_1.2 conn= Wye kv=7.97 kva=5 tap=0.913
 ~ wdg=2 bus=BT_39_2214.1.0  conn= Wye kv=0.22 kva=5 tap=1
 ~ wdg=3 bus=BT_39_2214.0.2  conn= Wye kv=0.22 kva=5 tap=1

New Transformer.IT39_2215 phases=3 Windings=2 Xhl=0.5 %loadLoss =1.81 %noloadLoss =0.47
 ~ wdg=1 bus=23808_1 conn= Delta kv=13.8 kva=30 tap=0.913
 ~ wdg=2 bus=BT_39_2215 conn= Wye kv=0.38 kva=30 tap=1

New Transformer.IT39_2216 phases=1 Windings=3 Xhl=0.5 %loadLoss =0.5 %noloadLoss =0.2
 ~ wdg=1 bus=23793_1.1 conn= Wye kv=7.97 kva=25 tap=1
 ~ wdg=2 bus=BT_39_2216.1.0  conn= Wye kv=0.22 kva=25 tap=1
 ~ wdg=3 bus=BT_39_2216.0.2  conn= Wye kv=0.22 kva=25 tap=1

New Transformer.IT39_2217 phases=1 Windings=3 Xhl=0.5 %loadLoss =0.5 %noloadLoss =0.2
 ~ wdg=1 bus=23792_1.2 conn= Wye kv=7.97 kva=10 tap=1
 ~ wdg=2 bus=BT_39_2217.1.0  conn= Wye kv=0.22 kva=10 tap=1
 ~ wdg=3 bus=BT_39_2217.0.2  conn= Wye kv=0.22 kva=10 tap=1

New Transformer.IT39_2223 phases=1 Windings=3 Xhl=0.5 %loadLoss =0.5 %noloadLoss =0.2
 ~ wdg=1 bus=19130_1.3 conn= Wye kv=7.97 kva=15 tap=1
 ~ wdg=2 bus=BT_39_2223.1.0  conn= Wye kv=0.22 kva=15 tap=1
 ~ wdg=3 bus=BT_39_2223.0.2  conn= Wye kv=0.22 kva=15 tap=1

New Transformer.IT39_2224 phases=1 Windings=3 Xhl=0.5 %loadLoss =0.5 %noloadLoss =0.2
 ~ wdg=1 bus=19097_1.3 conn= Wye kv=7.97 kva=20 tap=0.913
 ~ wdg=2 bus=BT_39_2224.1.0  conn= Wye kv=0.22 kva=20 tap=1
 ~ wdg=3 bus=BT_39_2224.0.2  conn= Wye kv=0.22 kva=20 tap=1

New Transformer.IT39_2225 phases=1 Windings=3 Xhl=0.5 %loadLoss =0.5 %noloadLoss =0.2
 ~ wdg=1 bus=19103_1.3 conn= Wye kv=7.97 kva=25 tap=0.956
 ~ wdg=2 bus=BT_39_2225.1.0  conn= Wye kv=0.22 kva=25 tap=1
 ~ wdg=3 bus=BT_39_2225.0.2  conn= Wye kv=0.22 kva=25 tap=1

New Transformer.IT39_2226 phases=1 Windings=3 Xhl=0.5 %loadLoss =0.5 %noloadLoss =0.2
 ~ wdg=1 bus=19111_1.1 conn= Wye kv=7.97 kva=5 tap=1
 ~ wdg=2 bus=BT_39_2226.1.0  conn= Wye kv=0.22 kva=5 tap=1
 ~ wdg=3 bus=BT_39_2226.0.2  conn= Wye kv=0.22 kva=5 tap=1

New Transformer.IT39_2227 phases=1 Windings=3 Xhl=0.5 %loadLoss =0.5 %noloadLoss =0.2
 ~ wdg=1 bus=20532_1.3 conn= Wye kv=7.97 kva=25 tap=0.913
 ~ wdg=2 bus=BT_39_2227.1.0  conn= Wye kv=0.22 kva=25 tap=1
 ~ wdg=3 bus=BT_39_2227.0.2  conn= Wye kv=0.22 kva=25 tap=1

New Transformer.IT39_2269 phases=3 Windings=2 Xhl=0.5 %loadLoss =1.65 %noloadLoss =0.41
 ~ wdg=1 bus=37938_1 conn= Delta kv=13.8 kva=45 tap=0.913
 ~ wdg=2 bus=BT_39_2269 conn= Wye kv=0.38 kva=45 tap=1

New Transformer.IT39_2317 phases=1 Windings=3 Xhl=0.5 %loadLoss =0.5 %noloadLoss =0.2
 ~ wdg=1 bus=20942_1.3 conn= Wye kv=7.97 kva=15 tap=0.87
 ~ wdg=2 bus=BT_39_2317.1.0  conn= Wye kv=0.22 kva=15 tap=1
 ~ wdg=3 bus=BT_39_2317.0.2  conn= Wye kv=0.22 kva=15 tap=1

New Transformer.IT39_2347 phases=1 Windings=3 Xhl=0.5 %loadLoss =0.5 %noloadLoss =0.2
 ~ wdg=1 bus=77198_1.1 conn= Wye kv=7.97 kva=15 tap=0.913
 ~ wdg=2 bus=BT_39_2347.1.0  conn= Wye kv=0.22 kva=15 tap=1
 ~ wdg=3 bus=BT_39_2347.0.2  conn= Wye kv=0.22 kva=15 tap=1

New Transformer.IT39_2351 phases=3 Windings=2 Xhl=0.5 %loadLoss =1.65 %noloadLoss =0.41
 ~ wdg=1 bus=17700_1 conn= Delta kv=13.8 kva=45 tap=0.913
 ~ wdg=2 bus=BT_39_2351 conn= Wye kv=0.38 kva=45 tap=1

New Transformer.IT39_2419 phases=3 Windings=2 Xhl=0.5 %loadLoss =1.46 %noloadLoss =0.37
 ~ wdg=1 bus=16924_1 conn= Delta kv=13.8 kva=75 tap=0.957
 ~ wdg=2 bus=BT_39_2419 conn= Wye kv=0.38 kva=75 tap=1

New Transformer.IT39_2465 phases=1 Windings=3 Xhl=0.5 %loadLoss =0.5 %noloadLoss =0.2
 ~ wdg=1 bus=19119_1.1 conn= Wye kv=7.97 kva=5 tap=0.87
 ~ wdg=2 bus=BT_39_2465.1.0  conn= Wye kv=0.22 kva=5 tap=1
 ~ wdg=3 bus=BT_39_2465.0.2  conn= Wye kv=0.22 kva=5 tap=1

New Transformer.IT39_2466 phases=1 Windings=3 Xhl=0.5 %loadLoss =0.5 %noloadLoss =0.2
 ~ wdg=1 bus=18711_1.3 conn= Wye kv=7.97 kva=5 tap=0.913
 ~ wdg=2 bus=BT_39_2466.1.0  conn= Wye kv=0.22 kva=5 tap=1
 ~ wdg=3 bus=BT_39_2466.0.2  conn= Wye kv=0.22 kva=5 tap=1

New Transformer.IT39_2467 phases=3 Windings=2 Xhl=0.5 %loadLoss =1.65 %noloadLoss =0.41
 ~ wdg=1 bus=18705_1 conn= Delta kv=13.8 kva=45 tap=0.957
 ~ wdg=2 bus=BT_39_2467 conn= Wye kv=0.38 kva=45 tap=1

New Transformer.IT39_2470 phases=1 Windings=3 Xhl=0.5 %loadLoss =0.5 %noloadLoss =0.2
 ~ wdg=1 bus=16956_1.3 conn= Wye kv=7.97 kva=5 tap=1
 ~ wdg=2 bus=BT_39_2470.1.0  conn= Wye kv=0.22 kva=5 tap=1
 ~ wdg=3 bus=BT_39_2470.0.2  conn= Wye kv=0.22 kva=5 tap=1

New Transformer.IT39_2471 phases=1 Windings=3 Xhl=0.5 %loadLoss =0.5 %noloadLoss =0.2
 ~ wdg=1 bus=20541_1.3 conn= Wye kv=7.97 kva=10 tap=0.913
 ~ wdg=2 bus=BT_39_2471.1.0  conn= Wye kv=0.22 kva=10 tap=1
 ~ wdg=3 bus=BT_39_2471.0.2  conn= Wye kv=0.22 kva=10 tap=1

New Transformer.IT39_2472 phases=1 Windings=3 Xhl=0.5 %loadLoss =0.5 %noloadLoss =0.2
 ~ wdg=1 bus=20187_1.2 conn= Wye kv=7.97 kva=5 tap=1
 ~ wdg=2 bus=BT_39_2472.1.0  conn= Wye kv=0.22 kva=5 tap=1
 ~ wdg=3 bus=BT_39_2472.0.2  conn= Wye kv=0.22 kva=5 tap=1

New Transformer.IT39_2473 phases=1 Windings=3 Xhl=0.5 %loadLoss =0.5 %noloadLoss =0.2
 ~ wdg=1 bus=20908_1.2 conn= Wye kv=7.97 kva=5 tap=1
 ~ wdg=2 bus=BT_39_2473.1.0  conn= Wye kv=0.22 kva=5 tap=1
 ~ wdg=3 bus=BT_39_2473.0.2  conn= Wye kv=0.22 kva=5 tap=1

New Transformer.IT39_2491 phases=1 Windings=3 Xhl=0.5 %loadLoss =0.5 %noloadLoss =0.2
 ~ wdg=1 bus=18681_1.3 conn= Wye kv=7.97 kva=3 tap=0.913
 ~ wdg=2 bus=BT_39_2491.1.0  conn= Wye kv=0.22 kva=3 tap=1
 ~ wdg=3 bus=BT_39_2491.0.2  conn= Wye kv=0.22 kva=3 tap=1

New Transformer.IT39_2645 phases=3 Windings=2 Xhl=0.5 %loadLoss =1.81 %noloadLoss =0.47
 ~ wdg=1 bus=26553_1 conn= Delta kv=13.8 kva=30 tap=1
 ~ wdg=2 bus=BT_39_2645 conn= Wye kv=0.38 kva=30 tap=1

New Transformer.IT39_2681 phases=3 Windings=2 Xhl=0.5 %loadLoss =1.65 %noloadLoss =0.41
 ~ wdg=1 bus=30125_1 conn= Delta kv=13.8 kva=45 tap=1
 ~ wdg=2 bus=BT_39_2681 conn= Wye kv=0.38 kva=45 tap=1

New Transformer.IT39_2682 phases=3 Windings=2 Xhl=0.5 %loadLoss =1.46 %noloadLoss =0.37
 ~ wdg=1 bus=14192_1 conn= Delta kv=13.8 kva=75 tap=0.957
 ~ wdg=2 bus=BT_39_2682 conn= Wye kv=0.38 kva=75 tap=1

New Transformer.IT39_2683 phases=3 Windings=2 Xhl=0.5 %loadLoss =1.32 %noloadLoss =0.32
 ~ wdg=1 bus=14238_1 conn= Delta kv=13.8 kva=112.5 tap=0.913
 ~ wdg=2 bus=BT_39_2683 conn= Wye kv=0.38 kva=112.5 tap=1

New Transformer.IT39_2760 phases=1 Windings=3 Xhl=0.5 %loadLoss =0.5 %noloadLoss =0.2
 ~ wdg=1 bus=31328_1.3 conn= Wye kv=7.97 kva=5 tap=0.87
 ~ wdg=2 bus=BT_39_2760.1.0  conn= Wye kv=0.22 kva=5 tap=1
 ~ wdg=3 bus=BT_39_2760.0.2  conn= Wye kv=0.22 kva=5 tap=1

New Transformer.IT39_2761 phases=1 Windings=3 Xhl=0.5 %loadLoss =0.5 %noloadLoss =0.2
 ~ wdg=1 bus=31300_1.3 conn= Wye kv=7.97 kva=5 tap=0.87
 ~ wdg=2 bus=BT_39_2761.1.0  conn= Wye kv=0.22 kva=5 tap=1
 ~ wdg=3 bus=BT_39_2761.0.2  conn= Wye kv=0.22 kva=5 tap=1

New Transformer.IT39_2762 phases=1 Windings=3 Xhl=0.5 %loadLoss =0.5 %noloadLoss =0.2
 ~ wdg=1 bus=31311_1.3 conn= Wye kv=7.97 kva=10 tap=0.87
 ~ wdg=2 bus=BT_39_2762.1.0  conn= Wye kv=0.22 kva=10 tap=1
 ~ wdg=3 bus=BT_39_2762.0.2  conn= Wye kv=0.22 kva=10 tap=1

New Transformer.IT39_2763 phases=1 Windings=3 Xhl=0.5 %loadLoss =0.5 %noloadLoss =0.2
 ~ wdg=1 bus=28580_1.2 conn= Wye kv=7.97 kva=15 tap=0.956
 ~ wdg=2 bus=BT_39_2763.1.0  conn= Wye kv=0.22 kva=15 tap=1
 ~ wdg=3 bus=BT_39_2763.0.2  conn= Wye kv=0.22 kva=15 tap=1

New Transformer.IT39_2764 phases=1 Windings=3 Xhl=0.5 %loadLoss =0.5 %noloadLoss =0.2
 ~ wdg=1 bus=28595_1.2 conn= Wye kv=7.97 kva=7.5 tap=0.913
 ~ wdg=2 bus=BT_39_2764.1.0  conn= Wye kv=0.22 kva=7.5 tap=1
 ~ wdg=3 bus=BT_39_2764.0.2  conn= Wye kv=0.22 kva=7.5 tap=1

New Transformer.IT39_2765 phases=1 Windings=3 Xhl=0.5 %loadLoss =0.5 %noloadLoss =0.2
 ~ wdg=1 bus=28555_1.1 conn= Wye kv=7.97 kva=5 tap=0.913
 ~ wdg=2 bus=BT_39_2765.1.0  conn= Wye kv=0.22 kva=5 tap=1
 ~ wdg=3 bus=BT_39_2765.0.2  conn= Wye kv=0.22 kva=5 tap=1

New Transformer.IT39_2767 phases=3 Windings=2 Xhl=0.5 %loadLoss =1.46 %noloadLoss =0.37
 ~ wdg=1 bus=99724_1 conn= Delta kv=13.8 kva=75 tap=1
 ~ wdg=2 bus=BT_39_2767 conn= Wye kv=0.38 kva=75 tap=1

New Transformer.IT39_2777 phases=3 Windings=2 Xhl=0.5 %loadLoss =1.81 %noloadLoss =0.47
 ~ wdg=1 bus=79363_1 conn= Delta kv=13.8 kva=30 tap=0.957
 ~ wdg=2 bus=BT_39_2777 conn= Wye kv=0.38 kva=30 tap=1

New Transformer.IT39_2778 phases=1 Windings=3 Xhl=0.5 %loadLoss =0.5 %noloadLoss =0.2
 ~ wdg=1 bus=31360_1.3 conn= Wye kv=7.97 kva=10 tap=0.913
 ~ wdg=2 bus=BT_39_2778.1.0  conn= Wye kv=0.22 kva=10 tap=1
 ~ wdg=3 bus=BT_39_2778.0.2  conn= Wye kv=0.22 kva=10 tap=1

New Transformer.IT39_2786 phases=1 Windings=3 Xhl=0.5 %loadLoss =0.5 %noloadLoss =0.2
 ~ wdg=1 bus=68704_1.3 conn= Wye kv=7.97 kva=7.5 tap=0.87
 ~ wdg=2 bus=BT_39_2786.1.0  conn= Wye kv=0.22 kva=7.5 tap=1
 ~ wdg=3 bus=BT_39_2786.0.2  conn= Wye kv=0.22 kva=7.5 tap=1

New Transformer.IT39_2796 phases=1 Windings=3 Xhl=0.5 %loadLoss =0.5 %noloadLoss =0.2
 ~ wdg=1 bus=31719_1.2 conn= Wye kv=7.97 kva=5 tap=0.87
 ~ wdg=2 bus=BT_39_2796.1.0  conn= Wye kv=0.22 kva=5 tap=1
 ~ wdg=3 bus=BT_39_2796.0.2  conn= Wye kv=0.22 kva=5 tap=1

New Transformer.IT39_2951 phases=1 Windings=3 Xhl=0.5 %loadLoss =0.5 %noloadLoss =0.2
 ~ wdg=1 bus=23430_1.1 conn= Wye kv=7.97 kva=10 tap=0.913
 ~ wdg=2 bus=BT_39_2951.1.0  conn= Wye kv=0.22 kva=10 tap=1
 ~ wdg=3 bus=BT_39_2951.0.2  conn= Wye kv=0.22 kva=10 tap=1

New Transformer.IT39_2952 phases=1 Windings=3 Xhl=0.5 %loadLoss =0.5 %noloadLoss =0.2
 ~ wdg=1 bus=18713_1.3 conn= Wye kv=7.97 kva=7.5 tap=0.913
 ~ wdg=2 bus=BT_39_2952.1.0  conn= Wye kv=0.22 kva=7.5 tap=1
 ~ wdg=3 bus=BT_39_2952.0.2  conn= Wye kv=0.22 kva=7.5 tap=1

New Transformer.IT39_2953 phases=1 Windings=3 Xhl=0.5 %loadLoss =0.5 %noloadLoss =0.2
 ~ wdg=1 bus=19585_1.2 conn= Wye kv=7.97 kva=15 tap=0.956
 ~ wdg=2 bus=BT_39_2953.1.0  conn= Wye kv=0.22 kva=15 tap=1
 ~ wdg=3 bus=BT_39_2953.0.2  conn= Wye kv=0.22 kva=15 tap=1

New Transformer.IT39_2986 phases=3 Windings=2 Xhl=0.5 %loadLoss =2.14 %noloadLoss =0.54
 ~ wdg=1 bus=35609_1 conn= Delta kv=13.8 kva=15 tap=0.913
 ~ wdg=2 bus=BT_39_2986 conn= Wye kv=0.38 kva=15 tap=1

New Transformer.IT39_3041 phases=3 Windings=2 Xhl=0.5 %loadLoss =1.81 %noloadLoss =0.47
 ~ wdg=1 bus=134299_1 conn= Delta kv=13.8 kva=30 tap=1
 ~ wdg=2 bus=BT_39_3041 conn= Wye kv=0.38 kva=30 tap=1

New Transformer.IT39_3089 phases=3 Windings=2 Xhl=0.5 %loadLoss =1.81 %noloadLoss =0.47
 ~ wdg=1 bus=15487_1 conn= Delta kv=13.8 kva=30 tap=0.913
 ~ wdg=2 bus=BT_39_3089 conn= Wye kv=0.38 kva=30 tap=1

New Transformer.IT39_3140 phases=1 Windings=3 Xhl=0.5 %loadLoss =0.5 %noloadLoss =0.2
 ~ wdg=1 bus=26231_1.3 conn= Wye kv=7.97 kva=25 tap=0.87
 ~ wdg=2 bus=BT_39_3140.1.0  conn= Wye kv=0.22 kva=25 tap=1
 ~ wdg=3 bus=BT_39_3140.0.2  conn= Wye kv=0.22 kva=25 tap=1

New Transformer.IT39_3232 phases=1 Windings=3 Xhl=0.5 %loadLoss =0.5 %noloadLoss =0.2
 ~ wdg=1 bus=77212_1.3 conn= Wye kv=7.97 kva=25 tap=1
 ~ wdg=2 bus=BT_39_3232.1.0  conn= Wye kv=0.22 kva=25 tap=1
 ~ wdg=3 bus=BT_39_3232.0.2  conn= Wye kv=0.22 kva=25 tap=1

New Transformer.IT39_3258 phases=1 Windings=3 Xhl=0.5 %loadLoss =0.5 %noloadLoss =0.2
 ~ wdg=1 bus=48866_1.2 conn= Wye kv=7.97 kva=10 tap=0.87
 ~ wdg=2 bus=BT_39_3258.1.0  conn= Wye kv=0.22 kva=10 tap=1
 ~ wdg=3 bus=BT_39_3258.0.2  conn= Wye kv=0.22 kva=10 tap=1

New Transformer.IT39_3260 phases=1 Windings=3 Xhl=0.5 %loadLoss =0.5 %noloadLoss =0.2
 ~ wdg=1 bus=17353_1.2 conn= Wye kv=7.97 kva=15 tap=0.913
 ~ wdg=2 bus=BT_39_3260.1.0  conn= Wye kv=0.22 kva=15 tap=1
 ~ wdg=3 bus=BT_39_3260.0.2  conn= Wye kv=0.22 kva=15 tap=1

New Transformer.IT39_3270 phases=1 Windings=3 Xhl=0.5 %loadLoss =0.5 %noloadLoss =0.2
 ~ wdg=1 bus=43350_1.2 conn= Wye kv=7.97 kva=5 tap=0.913
 ~ wdg=2 bus=BT_39_3270.1.0  conn= Wye kv=0.22 kva=5 tap=1
 ~ wdg=3 bus=BT_39_3270.0.2  conn= Wye kv=0.22 kva=5 tap=1

New Transformer.IT39_3281 phases=1 Windings=3 Xhl=0.5 %loadLoss =0.5 %noloadLoss =0.2
 ~ wdg=1 bus=16936_1.3 conn= Wye kv=7.97 kva=10 tap=0.913
 ~ wdg=2 bus=BT_39_3281.1.0  conn= Wye kv=0.22 kva=10 tap=1
 ~ wdg=3 bus=BT_39_3281.0.2  conn= Wye kv=0.22 kva=10 tap=1

New Transformer.IT39_3283 phases=1 Windings=3 Xhl=0.5 %loadLoss =0.5 %noloadLoss =0.2
 ~ wdg=1 bus=70223_1.2 conn= Wye kv=7.97 kva=10 tap=0.913
 ~ wdg=2 bus=BT_39_3283.1.0  conn= Wye kv=0.22 kva=10 tap=1
 ~ wdg=3 bus=BT_39_3283.0.2  conn= Wye kv=0.22 kva=10 tap=1

New Transformer.IT39_3337 phases=3 Windings=2 Xhl=0.5 %loadLoss =1.65 %noloadLoss =0.41
 ~ wdg=1 bus=83888_1 conn= Delta kv=13.8 kva=45 tap=1
 ~ wdg=2 bus=BT_39_3337 conn= Wye kv=0.38 kva=45 tap=1

New Transformer.IT39_3512 phases=1 Windings=3 Xhl=0.5 %loadLoss =0.5 %noloadLoss =0.2
 ~ wdg=1 bus=20930_1.3 conn= Wye kv=7.97 kva=10 tap=1
 ~ wdg=2 bus=BT_39_3512.1.0  conn= Wye kv=0.22 kva=10 tap=1
 ~ wdg=3 bus=BT_39_3512.0.2  conn= Wye kv=0.22 kva=10 tap=1

New Transformer.IT39_3569 phases=1 Windings=3 Xhl=0.5 %loadLoss =0.5 %noloadLoss =0.2
 ~ wdg=1 bus=41778_1.3 conn= Wye kv=7.97 kva=10 tap=0.913
 ~ wdg=2 bus=BT_39_3569.1.0  conn= Wye kv=0.22 kva=10 tap=1
 ~ wdg=3 bus=BT_39_3569.0.2  conn= Wye kv=0.22 kva=10 tap=1

New Transformer.IT39_3570 phases=1 Windings=3 Xhl=0.5 %loadLoss =0.5 %noloadLoss =0.2
 ~ wdg=1 bus=35999_1.3 conn= Wye kv=7.97 kva=7.5 tap=0.913
 ~ wdg=2 bus=BT_39_3570.1.0  conn= Wye kv=0.22 kva=7.5 tap=1
 ~ wdg=3 bus=BT_39_3570.0.2  conn= Wye kv=0.22 kva=7.5 tap=1

New Transformer.IT39_3571 phases=1 Windings=3 Xhl=0.5 %loadLoss =0.5 %noloadLoss =0.2
 ~ wdg=1 bus=35997_1.3 conn= Wye kv=7.97 kva=7.5 tap=0.913
 ~ wdg=2 bus=BT_39_3571.1.0  conn= Wye kv=0.22 kva=7.5 tap=1
 ~ wdg=3 bus=BT_39_3571.0.2  conn= Wye kv=0.22 kva=7.5 tap=1

New Transformer.IT39_3580 phases=1 Windings=3 Xhl=0.5 %loadLoss =0.5 %noloadLoss =0.2
 ~ wdg=1 bus=41779_1.2 conn= Wye kv=7.97 kva=10 tap=0.956
 ~ wdg=2 bus=BT_39_3580.1.0  conn= Wye kv=0.22 kva=10 tap=1
 ~ wdg=3 bus=BT_39_3580.0.2  conn= Wye kv=0.22 kva=10 tap=1

New Transformer.IT39_3588 phases=1 Windings=3 Xhl=0.5 %loadLoss =0.5 %noloadLoss =0.2
 ~ wdg=1 bus=36399_1.3 conn= Wye kv=7.97 kva=10 tap=0.913
 ~ wdg=2 bus=BT_39_3588.1.0  conn= Wye kv=0.22 kva=10 tap=1
 ~ wdg=3 bus=BT_39_3588.0.2  conn= Wye kv=0.22 kva=10 tap=1

New Transformer.IT39_3589 phases=3 Windings=2 Xhl=0.5 %loadLoss =1.81 %noloadLoss =0.47
 ~ wdg=1 bus=15500_1 conn= Delta kv=13.8 kva=30 tap=0.913
 ~ wdg=2 bus=BT_39_3589 conn= Wye kv=0.38 kva=30 tap=1

New Transformer.IT39_3661 phases=1 Windings=3 Xhl=0.5 %loadLoss =0.5 %noloadLoss =0.2
 ~ wdg=1 bus=117409_1.2 conn= Wye kv=7.97 kva=7.5 tap=0.87
 ~ wdg=2 bus=BT_39_3661.1.0  conn= Wye kv=0.22 kva=7.5 tap=1
 ~ wdg=3 bus=BT_39_3661.0.2  conn= Wye kv=0.22 kva=7.5 tap=1

New Transformer.IT39_3662 phases=1 Windings=3 Xhl=0.5 %loadLoss =0.5 %noloadLoss =0.2
 ~ wdg=1 bus=67438_1.1 conn= Wye kv=7.97 kva=15 tap=0.956
 ~ wdg=2 bus=BT_39_3662.1.0  conn= Wye kv=0.22 kva=15 tap=1
 ~ wdg=3 bus=BT_39_3662.0.2  conn= Wye kv=0.22 kva=15 tap=1

New Transformer.IT39_3718 phases=1 Windings=3 Xhl=0.5 %loadLoss =0.5 %noloadLoss =0.2
 ~ wdg=1 bus=112585_1.1 conn= Wye kv=7.97 kva=10 tap=1
 ~ wdg=2 bus=BT_39_3718.1.0  conn= Wye kv=0.22 kva=10 tap=1
 ~ wdg=3 bus=BT_39_3718.0.2  conn= Wye kv=0.22 kva=10 tap=1

New Transformer.IT39_3905 phases=1 Windings=3 Xhl=0.5 %loadLoss =0.5 %noloadLoss =0.2
 ~ wdg=1 bus=66756_1.2 conn= Wye kv=7.97 kva=10 tap=1
 ~ wdg=2 bus=BT_39_3905.1.0  conn= Wye kv=0.22 kva=10 tap=1
 ~ wdg=3 bus=BT_39_3905.0.2  conn= Wye kv=0.22 kva=10 tap=1

New Transformer.IT39_3906 phases=1 Windings=3 Xhl=0.5 %loadLoss =0.5 %noloadLoss =0.2
 ~ wdg=1 bus=76492_1.2 conn= Wye kv=7.97 kva=7.5 tap=1
 ~ wdg=2 bus=BT_39_3906.1.0  conn= Wye kv=0.22 kva=7.5 tap=1
 ~ wdg=3 bus=BT_39_3906.0.2  conn= Wye kv=0.22 kva=7.5 tap=1

New Transformer.IT39_3908 phases=1 Windings=3 Xhl=0.5 %loadLoss =0.5 %noloadLoss =0.2
 ~ wdg=1 bus=82837_1.1 conn= Wye kv=7.97 kva=10 tap=1
 ~ wdg=2 bus=BT_39_3908.1.0  conn= Wye kv=0.22 kva=10 tap=1
 ~ wdg=3 bus=BT_39_3908.0.2  conn= Wye kv=0.22 kva=10 tap=1

New Transformer.IT39_3909 phases=1 Windings=3 Xhl=0.5 %loadLoss =0.5 %noloadLoss =0.2
 ~ wdg=1 bus=75051_1.3 conn= Wye kv=7.97 kva=10 tap=1
 ~ wdg=2 bus=BT_39_3909.1.0  conn= Wye kv=0.22 kva=10 tap=1
 ~ wdg=3 bus=BT_39_3909.0.2  conn= Wye kv=0.22 kva=10 tap=1

New Transformer.IT39_3912 phases=1 Windings=3 Xhl=0.5 %loadLoss =0.5 %noloadLoss =0.2
 ~ wdg=1 bus=71861_1.2 conn= Wye kv=7.97 kva=10 tap=0.913
 ~ wdg=2 bus=BT_39_3912.1.0  conn= Wye kv=0.22 kva=10 tap=1
 ~ wdg=3 bus=BT_39_3912.0.2  conn= Wye kv=0.22 kva=10 tap=1

New Transformer.IT39_3969 phases=1 Windings=3 Xhl=0.5 %loadLoss =0.5 %noloadLoss =0.2
 ~ wdg=1 bus=100357_1.3 conn= Wye kv=7.97 kva=5 tap=1
 ~ wdg=2 bus=BT_39_3969.1.0  conn= Wye kv=0.22 kva=5 tap=1
 ~ wdg=3 bus=BT_39_3969.0.2  conn= Wye kv=0.22 kva=5 tap=1

New Transformer.IT39_3978 phases=3 Windings=2 Xhl=0.5 %loadLoss =1.46 %noloadLoss =0.37
 ~ wdg=1 bus=17334_1 conn= Delta kv=13.8 kva=75 tap=0.913
 ~ wdg=2 bus=BT_39_3978 conn= Wye kv=0.38 kva=75 tap=1

New Transformer.IT39_4028 phases=1 Windings=3 Xhl=0.5 %loadLoss =0.5 %noloadLoss =0.2
 ~ wdg=1 bus=98666_1.2 conn= Wye kv=7.97 kva=5 tap=1
 ~ wdg=2 bus=BT_39_4028.1.0  conn= Wye kv=0.22 kva=5 tap=1
 ~ wdg=3 bus=BT_39_4028.0.2  conn= Wye kv=0.22 kva=5 tap=1

New Transformer.IT39_4070 phases=1 Windings=3 Xhl=0.5 %loadLoss =0.5 %noloadLoss =0.2
 ~ wdg=1 bus=86504_1.1 conn= Wye kv=7.97 kva=5 tap=1
 ~ wdg=2 bus=BT_39_4070.1.0  conn= Wye kv=0.22 kva=5 tap=1
 ~ wdg=3 bus=BT_39_4070.0.2  conn= Wye kv=0.22 kva=5 tap=1

New Transformer.IT39_4158 phases=1 Windings=3 Xhl=0.5 %loadLoss =0.5 %noloadLoss =0.2
 ~ wdg=1 bus=102502_1.2 conn= Wye kv=7.97 kva=5 tap=0.913
 ~ wdg=2 bus=BT_39_4158.1.0  conn= Wye kv=0.22 kva=5 tap=1
 ~ wdg=3 bus=BT_39_4158.0.2  conn= Wye kv=0.22 kva=5 tap=1

New Transformer.IT39_4274 phases=3 Windings=2 Xhl=0.5 %loadLoss =1.65 %noloadLoss =0.41
 ~ wdg=1 bus=102362_1 conn= Delta kv=13.8 kva=45 tap=0.957
 ~ wdg=2 bus=BT_39_4274 conn= Wye kv=0.38 kva=45 tap=1

New Transformer.IT39_4307 phases=1 Windings=3 Xhl=0.5 %loadLoss =0.5 %noloadLoss =0.2
 ~ wdg=1 bus=23785_1.2 conn= Wye kv=7.97 kva=15 tap=0.913
 ~ wdg=2 bus=BT_39_4307.1.0  conn= Wye kv=0.22 kva=15 tap=1
 ~ wdg=3 bus=BT_39_4307.0.2  conn= Wye kv=0.22 kva=15 tap=1

New Transformer.IT39_4340 phases=1 Windings=3 Xhl=0.5 %loadLoss =0.5 %noloadLoss =0.2
 ~ wdg=1 bus=98927_1.3 conn= Wye kv=7.97 kva=10 tap=1
 ~ wdg=2 bus=BT_39_4340.1.0  conn= Wye kv=0.22 kva=10 tap=1
 ~ wdg=3 bus=BT_39_4340.0.2  conn= Wye kv=0.22 kva=10 tap=1

New Transformer.IT39_4490 phases=3 Windings=2 Xhl=0.5 %loadLoss =1.81 %noloadLoss =0.47
 ~ wdg=1 bus=89609_1 conn= Delta kv=13.8 kva=30 tap=0.913
 ~ wdg=2 bus=BT_39_4490 conn= Wye kv=0.38 kva=30 tap=1

New Transformer.IT39_451 phases=1 Windings=3 Xhl=0.5 %loadLoss =0.5 %noloadLoss =0.2
 ~ wdg=1 bus=8946_1.1 conn= Wye kv=7.97 kva=15 tap=0.956
 ~ wdg=2 bus=BT_39_451.1.0  conn= Wye kv=0.22 kva=15 tap=1
 ~ wdg=3 bus=BT_39_451.0.2  conn= Wye kv=0.22 kva=15 tap=1

New Transformer.IT39_4523 phases=3 Windings=2 Xhl=0.5 %loadLoss =1.81 %noloadLoss =0.47
 ~ wdg=1 bus=89689_1 conn= Delta kv=13.8 kva=30 tap=0.957
 ~ wdg=2 bus=BT_39_4523 conn= Wye kv=0.38 kva=30 tap=1

New Transformer.IT39_4742 phases=3 Windings=2 Xhl=0.5 %loadLoss =1.65 %noloadLoss =0.41
 ~ wdg=1 bus=96333_1 conn= Delta kv=13.8 kva=45 tap=0.957
 ~ wdg=2 bus=BT_39_4742 conn= Wye kv=0.38 kva=45 tap=1

New Transformer.IT39_4796 phases=1 Windings=3 Xhl=0.5 %loadLoss =0.5 %noloadLoss =0.2
 ~ wdg=1 bus=109191_1.3 conn= Wye kv=7.97 kva=5 tap=1
 ~ wdg=2 bus=BT_39_4796.1.0  conn= Wye kv=0.22 kva=5 tap=1
 ~ wdg=3 bus=BT_39_4796.0.2  conn= Wye kv=0.22 kva=5 tap=1

New Transformer.IT39_4802 phases=1 Windings=3 Xhl=0.5 %loadLoss =0.5 %noloadLoss =0.2
 ~ wdg=1 bus=80972_1.2 conn= Wye kv=7.97 kva=10 tap=0.913
 ~ wdg=2 bus=BT_39_4802.1.0  conn= Wye kv=0.22 kva=10 tap=1
 ~ wdg=3 bus=BT_39_4802.0.2  conn= Wye kv=0.22 kva=10 tap=1

New Transformer.IT39_4880 phases=1 Windings=3 Xhl=0.5 %loadLoss =0.5 %noloadLoss =0.2
 ~ wdg=1 bus=14836_1.2 conn= Wye kv=7.97 kva=10 tap=0.913
 ~ wdg=2 bus=BT_39_4880.1.0  conn= Wye kv=0.22 kva=10 tap=1
 ~ wdg=3 bus=BT_39_4880.0.2  conn= Wye kv=0.22 kva=10 tap=1

New Transformer.IT39_4924 phases=1 Windings=3 Xhl=0.5 %loadLoss =0.5 %noloadLoss =0.2
 ~ wdg=1 bus=77153_1.2 conn= Wye kv=7.97 kva=10 tap=0.956
 ~ wdg=2 bus=BT_39_4924.1.0  conn= Wye kv=0.22 kva=10 tap=1
 ~ wdg=3 bus=BT_39_4924.0.2  conn= Wye kv=0.22 kva=10 tap=1

New Transformer.IT39_4927 phases=1 Windings=3 Xhl=0.5 %loadLoss =0.5 %noloadLoss =0.2
 ~ wdg=1 bus=20142_1.3 conn= Wye kv=7.97 kva=10 tap=0.913
 ~ wdg=2 bus=BT_39_4927.1.0  conn= Wye kv=0.22 kva=10 tap=1
 ~ wdg=3 bus=BT_39_4927.0.2  conn= Wye kv=0.22 kva=10 tap=1

New Transformer.IT39_4928 phases=1 Windings=3 Xhl=0.5 %loadLoss =0.5 %noloadLoss =0.2
 ~ wdg=1 bus=32805_1.1 conn= Wye kv=7.97 kva=25 tap=0.956
 ~ wdg=2 bus=BT_39_4928.1.0  conn= Wye kv=0.22 kva=25 tap=1
 ~ wdg=3 bus=BT_39_4928.0.2  conn= Wye kv=0.22 kva=25 tap=1

New Transformer.IT39_5093 phases=1 Windings=3 Xhl=0.5 %loadLoss =0.5 %noloadLoss =0.2
 ~ wdg=1 bus=17616_1.3 conn= Wye kv=7.97 kva=15 tap=0.956
 ~ wdg=2 bus=BT_39_5093.1.0  conn= Wye kv=0.22 kva=15 tap=1
 ~ wdg=3 bus=BT_39_5093.0.2  conn= Wye kv=0.22 kva=15 tap=1

New Transformer.IT39_5101 phases=1 Windings=3 Xhl=0.5 %loadLoss =0.5 %noloadLoss =0.2
 ~ wdg=1 bus=18385_1.2 conn= Wye kv=7.97 kva=5 tap=0.87
 ~ wdg=2 bus=BT_39_5101.1.0  conn= Wye kv=0.22 kva=5 tap=1
 ~ wdg=3 bus=BT_39_5101.0.2  conn= Wye kv=0.22 kva=5 tap=1

New Transformer.IT39_5106 phases=1 Windings=3 Xhl=0.5 %loadLoss =0.5 %noloadLoss =0.2
 ~ wdg=1 bus=103985_1.2 conn= Wye kv=7.97 kva=10 tap=0.956
 ~ wdg=2 bus=BT_39_5106.1.0  conn= Wye kv=0.22 kva=10 tap=1
 ~ wdg=3 bus=BT_39_5106.0.2  conn= Wye kv=0.22 kva=10 tap=1

New Transformer.IT39_5107 phases=1 Windings=3 Xhl=0.5 %loadLoss =0.5 %noloadLoss =0.2
 ~ wdg=1 bus=110824_3.2 conn= Wye kv=7.97 kva=10 tap=1
 ~ wdg=2 bus=BT_39_5107.1.0  conn= Wye kv=0.22 kva=10 tap=1
 ~ wdg=3 bus=BT_39_5107.0.2  conn= Wye kv=0.22 kva=10 tap=1

New Transformer.IT39_5111 phases=1 Windings=3 Xhl=0.5 %loadLoss =0.5 %noloadLoss =0.2
 ~ wdg=1 bus=107652_1.1 conn= Wye kv=7.97 kva=25 tap=0.956
 ~ wdg=2 bus=BT_39_5111.1.0  conn= Wye kv=0.22 kva=25 tap=1
 ~ wdg=3 bus=BT_39_5111.0.2  conn= Wye kv=0.22 kva=25 tap=1

New Transformer.IT39_5159 phases=1 Windings=3 Xhl=0.5 %loadLoss =0.5 %noloadLoss =0.2
 ~ wdg=1 bus=26233_1.2 conn= Wye kv=7.97 kva=10 tap=0.913
 ~ wdg=2 bus=BT_39_5159.1.0  conn= Wye kv=0.22 kva=10 tap=1
 ~ wdg=3 bus=BT_39_5159.0.2  conn= Wye kv=0.22 kva=10 tap=1

New Transformer.IT39_516 phases=1 Windings=3 Xhl=0.5 %loadLoss =0.5 %noloadLoss =0.2
 ~ wdg=1 bus=145384_1.2 conn= Wye kv=7.97 kva=10 tap=1
 ~ wdg=2 bus=BT_39_516.1.0  conn= Wye kv=0.22 kva=10 tap=1
 ~ wdg=3 bus=BT_39_516.0.2  conn= Wye kv=0.22 kva=10 tap=1

New Transformer.IT39_520 phases=3 Windings=2 Xhl=0.5 %loadLoss =1.46 %noloadLoss =0.37
 ~ wdg=1 bus=14206_1 conn= Delta kv=13.8 kva=75 tap=0.913
 ~ wdg=2 bus=BT_39_520 conn= Wye kv=0.38 kva=75 tap=1

New Transformer.IT39_521 phases=3 Windings=2 Xhl=0.5 %loadLoss =1.46 %noloadLoss =0.37
 ~ wdg=1 bus=14262_1 conn= Delta kv=13.8 kva=75 tap=0.913
 ~ wdg=2 bus=BT_39_521 conn= Wye kv=0.38 kva=75 tap=1

New Transformer.IT39_522 phases=1 Windings=3 Xhl=0.5 %loadLoss =0.5 %noloadLoss =0.2
 ~ wdg=1 bus=17341_1.3 conn= Wye kv=7.97 kva=25 tap=0.956
 ~ wdg=2 bus=BT_39_522.1.0  conn= Wye kv=0.22 kva=25 tap=1
 ~ wdg=3 bus=BT_39_522.0.2  conn= Wye kv=0.22 kva=25 tap=1

New Transformer.IT39_523 phases=1 Windings=3 Xhl=0.5 %loadLoss =0.5 %noloadLoss =0.2
 ~ wdg=1 bus=15550_1.3 conn= Wye kv=7.97 kva=10 tap=0.956
 ~ wdg=2 bus=BT_39_523.1.0  conn= Wye kv=0.22 kva=10 tap=1
 ~ wdg=3 bus=BT_39_523.0.2  conn= Wye kv=0.22 kva=10 tap=1

New Transformer.IT39_524 phases=1 Windings=3 Xhl=0.5 %loadLoss =0.5 %noloadLoss =0.2
 ~ wdg=1 bus=136087_1.3 conn= Wye kv=7.97 kva=15 tap=0.913
 ~ wdg=2 bus=BT_39_524.1.0  conn= Wye kv=0.22 kva=15 tap=1
 ~ wdg=3 bus=BT_39_524.0.2  conn= Wye kv=0.22 kva=15 tap=1

...